45
 energy: -80.358265452007 gnorm: 0.000256536344 xtb: 6.5.1 (b24c23e)
Si           0.47116983939033        1.43402066547490        0.11484723922971
O           -0.84659745438669        1.05939258347638       -0.76963067274444
C           -2.20648583329823        1.37145492801668       -0.57610138158800
C           -2.81464862947755        0.46087574167762        0.45933648880399
H           -2.29197129730691        2.41399044655261       -0.25041799619613
C           -2.50872426492896       -0.89351833676517        0.44896684911800
C           -3.67431222571675        0.95662378101456        1.42848720120296
C           -3.05033029346062       -1.74104705832427        1.39784709515492
H           -1.83296470027431       -1.28104797890910       -0.30108728059533
C           -4.22181338891911        0.10697848348208        2.37310268325771
H           -3.89958164247973        2.01209123909408        1.45056994401945
C           -3.91087553596796       -1.24209008780940        2.36056928056974
H           -2.80006955597821       -2.79246991621382        1.38537944905878
H           -4.88613600189329        0.50117136941229        3.12769547112346
H           -4.33367867158405       -1.90295757665779        3.10299448745612
C           -2.91989258376859        1.19294073100208       -1.93017976812470
C           -2.27401590750718        1.98733564937656       -2.95309861209456
H           -2.88686816010146        0.13697662999371       -2.21393858930707
H           -3.96375789516473        1.49654348097412       -1.82152461175087
C           -1.68752848189988        2.63811417554563       -3.76806706533689
H           -1.19346464183415        3.21915154110102       -4.48801991912845
Cl           1.77116334099995        2.93920533609608       -0.34851804162541
Cl          -0.53002874221488        2.46599240426109        1.69124479177948
O            0.89619674951348        0.27464065745908        1.30993390774090
O            1.44369928418157        0.44529975478878       -1.09606819313366
C            2.07643414325888       -1.66049248467088        0.53912839462660
C            1.28130084353405       -1.83730884350162       -0.62125812182890
C            0.17623816598704       -0.86852878574683       -2.49318716810032
C            2.93402027386221       -0.21599067153033        2.23780045850886
C            3.92428100865720       -1.09141546507842        2.56022917861714
C            3.03542872545942       -2.61939603137893        0.94048204554300
C            3.94396608888699       -2.35576088046775        1.92231667398067
C            0.82627114457312       -3.10351016722450       -1.05654606010797
C            0.04582286808348       -3.23206980730401       -2.16919817966763
C           -0.30010131593861       -2.08156327673524       -2.90740972767719
H            3.07299203540414       -3.54982042879358        0.39709548124579
H            4.68788226905281       -3.08562701736440        2.19622127631964
H            1.06680853960679       -3.96293215916791       -0.45214794245956
H           -0.32023476696491       -4.19915726240353       -2.47442230714685
H           -0.92436022400594       -2.14758388343408       -3.78153477191088
H           -0.03466593855010        0.06336681287750       -2.99456819110487
N            2.00747726086698       -0.51188734215638        1.30971868812633
N            0.95310616945478       -0.75895017530961       -1.41211025651713
H            2.79834562866798        0.74074769072598        2.71797176760708
H            4.66316377418337       -0.83008946544233        3.29712600506343
