45
 energy: -80.356088941412 gnorm: 0.000356067883 xtb: 6.5.1 (b24c23e)
Si          -0.20883481703560       -0.22862078881658        0.65211562289189
O           -0.98273703585280        0.74319442292810       -0.38270044465599
C           -2.27570618762342        1.29119432988896       -0.25673977437850
C           -3.32696146687523        0.22762491691058       -0.43993962790168
H           -2.37850170701930        1.73359903784754        0.74251407164531
C           -3.14516086423653       -0.76548494160669       -1.39269301632743
C           -4.47053211759530        0.22016444117966        0.34578066712073
C           -4.09509824291403       -1.75701367139973       -1.55616011136846
H           -2.24181344225222       -0.76596030052763       -1.98441526158870
C           -5.42336587963912       -0.76877312180603        0.17655766464964
H           -4.60487536059932        0.98187693930834        1.09998801798865
C           -5.23740032931098       -1.75841997579047       -0.77375022568953
H           -3.94241099855181       -2.53232170575082       -2.29274155452402
H           -6.30821347416164       -0.77275026333312        0.79602439131286
H           -5.97792106051724       -2.53484481083747       -0.89836268194183
C           -2.41546425948141        2.38996289485503       -1.32455553053417
C           -1.47851342670958        3.46456183749854       -1.08088028599244
H           -3.43735127786703        2.77685765282899       -1.30440904773697
H           -2.21821978163243        1.95079580536848       -2.30536111610162
C           -0.68263943545820        4.32714261176338       -0.84729498258694
H           -0.00428849516787        5.10533708634812       -0.66268008520512
Cl          -0.76121364156764       -2.20871323285194        0.97077099423828
Cl          -1.13531452144095        0.39542556847521        2.48939833902968
O            0.77480818831997       -0.74074943035831       -0.80898073955264
O            1.24351957013443        0.44447948327813        1.29140643840016
C            3.07719419144762       -0.89279596166718       -0.39832127712085
C            3.13444762810153        0.49949562835305       -0.14687594744285
C            1.99714241948309        2.48416596747516        0.53862606818874
C            1.75539382239919       -2.82682051642478       -0.81791137011955
C            2.85393465260641       -3.63990196712299       -0.81732916898011
C            4.22651420565784       -1.71399852652176       -0.44747339299668
C            4.12775929994185       -3.06076339955812       -0.64545621388990
C            4.20350302559451        1.31489337945606       -0.58432592542851
C            4.13976548036447        2.67452739771549       -0.50135454687995
C            2.97843628794971        3.28204037576592        0.03430425372442
H            5.18455048605043       -1.25252501032004       -0.27155279469171
H            5.00928848037406       -3.68099671660262       -0.65616091284111
H            5.04943122414352        0.83250447342089       -1.04679134491250
H            4.94934747911661        3.28715652887258       -0.86297180693405
H            2.87879994248734        4.35274608363010        0.06117216053278
H            1.10192359984983        2.85531837164569        1.01255501243349
N            1.86499074480938       -1.50450575747203       -0.64524413355306
N            2.10529358134052        1.14760111990118        0.50892620835508
H            0.74916013252583       -3.18475761069920       -0.96409433805450
H            2.73896238081152       -4.70072164524807       -0.95452025058017
