45
 energy: -80.358218655836 gnorm: 0.000654009611 xtb: 6.5.1 (b24c23e)
Si          -0.03106823755235       -1.47327432604072       -0.07059713686976
O           -1.27573459112058       -0.61765001392731        0.54271192518369
C           -2.56124047271256       -0.36101728101123        0.02521547531877
C           -2.49677538538421        0.74449418776742       -0.99717660829979
H           -2.94999056417834       -1.27438601853597       -0.43812976505607
C           -1.74663742251041        1.88243925009682       -0.72991910501254
C           -3.16229412082388        0.63814757976534       -2.20942188916026
C           -1.65996958345733        2.89977493595398       -1.66222196874009
H           -1.21943659227416        1.96398115442399        0.21060541521457
C           -3.08093924486653        1.65963836132905       -3.13933968061655
H           -3.72952005691444       -0.25356949009494       -2.42910817490009
C           -2.33029321567051        2.79109780400691       -2.86870615510455
H           -1.06827109258646        3.77818746509528       -1.44608062693421
H           -3.59778613218828        1.56753752492656       -4.08303118376006
H           -2.26248113854095        3.58466786203886       -3.59847888159781
C           -3.46577001707086        0.04501143748936        1.20383194152771
C           -3.44714748010208       -0.97341648709842        2.23221972317159
H           -4.48397974104501        0.18658790402633        0.83360883751587
H           -3.10708479829552        0.99055363545887        1.62074445843067
C           -3.37704394595986       -1.82869617501965        3.06600746857323
H           -3.33855286104265       -2.58211423059507        3.79453248175293
Cl           0.47262229371872       -3.35521249536799        0.54063681333098
Cl          -0.95817877240861       -2.06244960091647       -1.89933205195082
O            1.05208391619946       -0.57110787747164       -1.05259981654040
O            0.94353631174315       -0.91901578290353        1.39375859485288
C            2.67435267101248        0.76333450902188        0.09472824042385
C            1.76805810487243        1.24452334202489        1.07282598328124
C           -0.01307415538091        0.79718776377719        2.58617250824678
C            3.27494296742728       -0.91860143198284       -1.49237940780068
C            4.56830790086951       -0.49822792725348       -1.53167664380628
C            3.98885218048663        1.27246400521232       -0.02214131872572
C            4.92332617103518        0.66738155416588       -0.80932516353532
C            1.74333433365009        2.59167457947385        1.50255052903043
C            0.84158999936650        3.02290013170621        2.43223833349491
C           -0.07335450174132        2.10376672297241        2.98550009317201
H            4.25475493891378        2.12211387688397        0.58618749375834
H            5.92915374625020        1.05024165831423       -0.86532431639225
H            2.42243451727219        3.28489969831983        1.03389408480471
H            0.81278406946450        4.05849248303507        2.73052503023428
H           -0.80604396796369        2.41526687627968        3.70965703751906
H           -0.66830760515946        0.02402197521195        2.95624202598875
N            2.34857609739800       -0.27700349679857       -0.75938355834259
N            0.88659264851385        0.38453239235568        1.68913389607180
H            2.89701684769025       -1.75337779331722       -2.06215595177412
H            5.29688998106827       -1.03295024279782       -2.11510298597896
