45
 energy: -80.351057550087 gnorm: 0.000529108109 xtb: 6.5.1 (b24c23e)
Si          -0.10131505982890       -0.60677864171105        0.82573333946890
O            1.49976240135104       -0.50837014078599        0.45479132800384
C            2.41123526771306        0.55450540639150        0.40658234295910
C            3.63212051805564        0.12034434038350       -0.37153200045424
H            1.93775374123807        1.40391624556439       -0.10628000639239
C            4.02491699262217       -1.21010665382582       -0.38531151909935
C            4.39674590770534        1.06273294970156       -1.04739812435753
C            5.16446999015784       -1.59405772057830       -1.06997818070590
H            3.42156473072952       -1.93890485763716        0.13278112361131
C            5.53850200971152        0.67869488537015       -1.72716630634843
H            4.09413758723933        2.10097461300602       -1.04039643179840
C            5.92492569956864       -0.65121217141616       -1.73981225299440
H            5.46010668990810       -2.63294502895217       -1.07885275674566
H            6.12648452124417        1.41835318886192       -2.25123401735147
H            6.81530289506729       -0.95062945506704       -2.27318507379174
C            2.85131687414341        1.00098052260337        1.82355224945387
C            2.00529107608185        2.03659027655082        2.36869977992626
H            3.87850484527106        1.37338416321608        1.77578987817574
H            2.82270762890574        0.12747303202824        2.47807108044561
C            1.31499279268776        2.92500134773518        2.77979304210555
H            0.71538476908414        3.67965270139022        3.19456235973117
Cl          -0.15489938715041       -2.44883423970592       -0.10989259239845
Cl          -0.05503456128580       -0.40159303281519        2.86173243618133
O           -1.97871633211547       -0.74670018500921        1.12218335462460
O           -0.48077997458652        0.77800491735478       -0.12214541861311
C           -3.22596366765657        0.03647869966041       -0.69362211722969
C           -2.78185602837638        1.36134740751858       -0.45588520482146
C           -1.19444574066363        2.85561877743747        0.52964737920643
C           -3.18413529609836       -2.26620611863026       -0.10184279599904
C           -4.08194212475200       -2.59083124875428       -1.08138424664003
C           -4.17325638774723       -0.28007448711710       -1.69478767476931
C           -4.59229941477108       -1.56382576085512       -1.89631138196346
C           -3.62930242849463        2.47727125659646       -0.65179043529281
C           -3.28659140737861        3.72503720621290       -0.22375471940956
C           -2.04567888566494        3.91133253660285        0.43555686091750
H           -4.52196350230455        0.51567598461251       -2.33241622759409
H           -5.29779593151962       -1.79326381375782       -2.67858089761693
H           -4.59603260097748        2.30119593327879       -1.09470588253621
H           -3.95729499100487        4.55797962469087       -0.35564092776530
H           -1.77133000182086        4.87005588859910        0.83956278282638
H           -0.20694746605607        2.91329421378921        0.96730590409896
N           -2.78922209368448       -1.00450609429642        0.09423984988091
N           -1.52086666794861        1.64239042233395        0.04779100557755
H           -2.75149661344184       -2.98704918634242        0.57200653827336
H           -4.38385837316309       -3.61420470422850       -1.21758744277740
