45
 energy: -80.355280673417 gnorm: 0.000950053996 xtb: 6.5.1 (b24c23e)
Si           0.05276780194019       -1.08621131915039        0.27593041944742
O            1.52899481565764       -1.36306150765603       -0.39489392667137
C            2.78798677232303       -0.86453886503568       -0.01474586070220
C            2.91846524326384        0.60284116229361       -0.33086360970608
H            2.91079173118443       -1.01579138626761        1.06620114133883
C            2.49849845804302        1.08896345215709       -1.56246702169988
C            3.44698429684442        1.48389339186481        0.60353615563178
C            2.60040205204494        2.43739977445686       -1.85333242815433
H            2.06981750278708        0.40417504798065       -2.27787751821330
C            3.55819935084873        2.83273524300768        0.30783506052772
H            3.76425354819516        1.11124861636208        1.56704314386844
C            3.13333528612081        3.31208920610251       -0.92032979742354
H            2.26566382017765        2.80832539748577       -2.81111708615306
H            3.97151619821887        3.51053356733512        1.04071330076248
H            3.21546157999499        4.36470321309254       -1.14867438789111
C            3.86649080156780       -1.66978495685271       -0.76340900714743
C            3.87077830559166       -3.04916395294083       -0.32673332977876
H            4.84365839961237       -1.21704281295586       -0.57347571925831
H            3.65478799659151       -1.62784413978381       -1.83430691216599
C            3.84393216082234       -4.18055292353836        0.06084664262662
H            3.82712774082342       -5.17646665185787        0.38863757376558
Cl           0.62822673551890       -0.96349730528462        2.26173389220075
Cl          -0.70260216100340       -2.53250506736156       -1.00412956577235
O           -0.16685287342172        0.47047068369989       -0.42016891812334
O           -1.64498865825617       -0.90997480459836        1.03891226385653
C           -2.24394759623657        1.57809637511595        0.00500454738990
C           -3.05463709247390        0.44182315125474       -0.24936552517949
C           -3.45780453824472       -1.88755286612689        0.02366459355758
C           -0.13260387057274        2.50492505906513        0.63957286647782
C           -0.68616056028099        3.71318728607381        0.92742722770835
C           -2.80686304615034        2.85976091312482        0.20679690433151
C           -2.06223202322461        3.90994657601841        0.65605740830643
C           -4.26856685237205        0.52369223022436       -0.96914113852450
C           -5.03833397788331       -0.58115894237211       -1.19563522554311
C           -4.62149608728289       -1.82722147630156       -0.69072567542603
H           -3.86877748512205        2.97044934006433        0.06084141024904
H           -2.51514180731056        4.87126043269950        0.83324623418180
H           -4.54940724671849        1.47859027638570       -1.38208305868195
H           -5.94988268972810       -0.50655145302255       -1.76605904436692
H           -5.19822043150466       -2.71952553323832       -0.85960129992656
H           -3.06910759767940       -2.79559864245501        0.45359137438792
N           -0.86660778817694        1.49727272748778        0.13543503179628
N           -2.72190061819511       -0.79575059443380        0.25402899379187
H            0.91658462784875        2.28488381681524        0.75851556459952
H           -0.08236522418268        4.50195526106582        1.34034730570545
