45
 energy: -80.356018353498 gnorm: 0.000469274277 xtb: 6.5.1 (b24c23e)
Si           0.40440782907090        0.42533354123061       -1.16744347934394
O            1.21459363248885        0.86578127810257        0.16027416277178
C            2.55435293829966        1.29256014535578        0.26577303877406
C            3.50212237184618        0.16616777005110       -0.05312097264691
H            2.72121967627644        2.11593677403931       -0.44051249140580
C            3.22487552704479       -1.11627102910628        0.40039629334912
C            4.63834843836626        0.39035580008875       -0.81671028054147
C            4.07234238872642       -2.16394941869136        0.09033665755424
H            2.32655091945554       -1.28790071066558        0.97473173396429
C            5.48918325243746       -0.65766088383890       -1.12053232893705
H            4.84513693327436        1.38376197692672       -1.18675777103294
C            5.20754067796083       -1.93555877565625       -0.66864427357618
H            3.84414630507661       -3.16117085678591        0.43704537817943
H            6.36796715217245       -0.47768675322064       -1.72205002313177
H            5.86741424414174       -2.75437653043960       -0.91535626993097
C            2.75842601958270        1.79761177678867        1.70453474087015
C            1.88280627905205        2.91590685709859        1.97848510516061
H            3.80113682407200        2.09846577088871        1.83216936016610
H            2.53335407974249        0.98310494208690        2.39704695126727
C            1.12934194794958        3.82787071526933        2.15888817893979
H            0.48481490645925        4.63301148843316        2.34826381679878
Cl           1.54509535973635        1.50709311427327       -2.63870436051434
Cl           0.69435820112616       -1.37336300325662       -2.16433026992839
O           -0.72401871901234       -0.40587824138405        0.01463580069070
O           -0.91792159013594        1.44876318602910       -1.58839917294889
C           -2.99897966849934       -0.08949027491018       -0.44992300890884
C           -2.86356522739670        1.30338204906552       -0.23275904940998
C           -1.45598367546303        3.23263415174137       -0.23897414092278
C           -1.96199525855613       -2.21860872983895       -0.68536933182564
C           -3.15446165248010       -2.82569540831427       -0.96306484462072
C           -4.24578495976237       -0.71365458662584       -0.68216069448749
C           -4.33221381603918       -2.05103904409789       -0.94014750624679
C           -3.84306658677783        2.07457412027769        0.43429040969299
C           -3.60838815704585        3.37035253669295        0.78843150603030
C           -2.35646770262886        3.95628209501331        0.48152866342744
H           -5.12582197250771       -0.09164282618420       -0.70175245479427
H           -5.28600419584632       -2.51178412884647       -1.14009020806094
H           -4.76396348695240        1.58823683741257        0.71262131414949
H           -4.35332620685814        3.94008957241476        1.31946372711894
H           -2.12501658949181        4.96004259477936        0.79173569247853
H           -0.50036179905222        3.61298617006479       -0.56426560910948
N           -1.89125043845073       -0.91136599180251       -0.40887417058167
N           -1.72841270194573        1.98068886989748       -0.63569790880705
H           -1.01931755077844       -2.74076351318038       -0.65876252761785
H           -3.18467494862783       -3.87776442719391       -1.18555838203492
