45
 energy: -80.353238770468 gnorm: 0.000847665454 xtb: 6.5.1 (b24c23e)
Si           0.03501468906387       -1.06043353947770        0.68613398985831
O            1.65871202539227       -1.25305784556436        0.48566168833173
C            2.41865118014639       -1.00707940177419       -0.67271508407702
C            2.81390744818324        0.44734009187510       -0.71933789474703
H            1.82487390671200       -1.25440933493746       -1.56291843901916
C            3.28489584821188        1.06359567896858        0.43355424430897
C            2.69253163777197        1.19023185438512       -1.88468028544002
C            3.62645906316413        2.40466099756003        0.42077362176438
H            3.35722827492875        0.48657051439493        1.34372389627227
C            3.03502086141584        2.53154866857661       -1.89748710665596
H            2.32091750815117        0.71720365094078       -2.78247765806085
C            3.50149052753634        3.14179548890292       -0.74564458171668
H            3.98925743229648        2.87627663356530        1.32298761290107
H            2.93306377472788        3.10350403139129       -2.80851000111686
H            3.76476544219048        4.18945164818177       -0.75602678003038
C            3.66574080719594       -1.91016634166383       -0.63659947774905
C            3.28943629476047       -3.29796859663500       -0.79683304240282
H            4.34606075046223       -1.61322897802032       -1.43963724095895
H            4.16453248843865       -1.77573352316825        0.32578016567852
C            2.92476202762277       -4.42858671307034       -0.93745476536340
H            2.62190003708410       -5.42590711295165       -1.05311271911428
Cl           0.24342427540038       -1.23703684380538        2.70954935670058
Cl          -0.53627893583132       -2.43540648855035       -0.79095769258059
O           -0.02507861281947        0.48460374533103       -0.09640554989764
O           -1.75111179572950       -0.80536589672257        1.13578098168134
C           -2.06909891833358        1.71491294553832        0.01907761855342
C           -2.89166844581572        0.61715252509044       -0.34206094288658
C           -3.42811646265035       -1.69357944839534       -0.15502452309256
C           -0.00182616128019        2.55859199357737        0.87495233976115
C           -0.52129082616406        3.80066690076086        1.06716157155407
C           -2.58803220188507        3.02620643508330        0.13219080403236
C           -1.84918084303504        4.05154043387412        0.64290203929442
C           -3.98744750617449        0.75454866172000       -1.22588227881812
C           -4.76041725676255       -0.31499225327074       -1.57482623026228
C           -4.47044388525236       -1.58182730982167       -1.03156134972743
H           -3.61919318688878        3.18215246933803       -0.13912128893276
H           -2.27204302734778        5.03691182413612        0.74891602054650
H           -4.16560745333917        1.72317530924804       -1.66381598239581
H           -5.57581502395266       -0.19847320518211       -2.27054419932541
H           -5.05025756967024       -2.44857173751427       -1.29561831510352
H           -3.14675264195397       -2.61935836859984        0.31986734460231
N           -0.72506836789524        1.56988675814816        0.32104625290266
N           -2.68864841714950       -0.63542345633259        0.19334178180260
H            1.01818297144829        2.29294514424954        1.10676964584054
H            0.07369526762552        4.57388399062021        1.52027245308808
