45
 energy: -80.355978376418 gnorm: 0.000761500421 xtb: 6.5.1 (b24c23e)
Si           0.24978074693999       -1.11885942364675        0.52159450653960
O           -0.95064740413983       -1.17505258228602       -0.55581892186395
C           -2.34374007353298       -1.28721130830926       -0.38255028272905
C           -2.94937853749793        0.09412667592980       -0.38317676156032
H           -2.55514020277190       -1.78469358751588        0.57148224680756
C           -2.47671317788117        1.04947898450861       -1.27466096262028
C           -3.95529830252439        0.43515701791915        0.51034772537136
C           -3.00462293179894        2.32800107947066       -1.27500915825513
H           -1.68005104928313        0.78295598395644       -1.95296378218147
C           -4.48563189961154        1.71403066205525        0.50658563126311
H           -4.31404644228111       -0.30137265345935        1.21412449845145
C           -4.01224982366973        2.66177828033641       -0.38545952574167
H           -2.62996402267632        3.06485887701198       -1.97086938347414
H           -5.26717746442651        1.97288004646772        1.20562944125945
H           -4.42746941432003        3.65911463859158       -0.38620408515147
C           -2.90416733685260       -2.13816525022500       -1.53533523344173
C           -2.41207732203799       -3.49597774159594       -1.44035435743564
H           -3.99618706930998       -2.13178653367976       -1.48467578927731
H           -2.58640384001622       -1.69865419005586       -2.48386622165653
C           -1.97356650543923       -4.60213253992474       -1.31783939441206
H           -1.60148881841581       -5.57812722048107       -1.22475690799544
Cl          -0.83264511526548       -1.65334832071465        2.30211881467936
Cl           1.57504845716340       -2.68987666002927        0.73582184948713
O            1.21536937691084       -0.47272258469302       -0.89834666240934
O            0.62059938907440        0.35213195272168        1.34621002629948
C            2.80060589396437        1.14511577382355       -0.31678069108006
C            1.77113927546364        2.02757505440338        0.09573404165317
C           -0.43786793928276        2.34867803704116        0.94962255358244
C            3.44654161265692       -1.01284611521290       -1.08533470537525
C            4.77051209446511       -0.67251231422727       -1.08769967500605
C            4.16151979994427        1.52558815970358       -0.36046930674564
C            5.13353575341692        0.64106210315317       -0.72918659127684
C            1.82184510046056        3.41860918262153       -0.15571337137119
C            0.75565344219461        4.23084516574425        0.09462393233216
C           -0.42993518638211        3.67149849022045        0.63025774997000
H            4.41799591579648        2.52272901438050       -0.04168527459502
H            6.17050839150911        0.93560288189611       -0.73408183117204
H            2.71433715968370        3.81316207106393       -0.61381945179714
H            0.80039642992742        5.28400819306368       -0.12950658701061
H           -1.30511876154839        4.27369672849832        0.79796348653446
H           -1.27425910790272        1.85236478656240        1.41659193539223
N            2.50072689988236       -0.13236255361573       -0.74079115782613
N            0.63506714192715        1.56943563943404        0.73912212133162
H            3.08029411203999       -1.98616028974321       -1.36813991120539
H            5.51320675544744       -1.39916261116557       -1.36594757629278
