45
 energy: -80.356406362422 gnorm: 0.000771573729 xtb: 6.5.1 (b24c23e)
Si           0.62091882453993       -1.27768665652621        0.83313656800728
O           -0.75963753414899       -1.82080572758701        0.18953056314842
C           -1.42436029351201       -1.50390157608946       -1.01638161605332
C           -2.39419996982428       -0.37918483272189       -0.75757653115406
H           -0.68928668255158       -1.19716391600209       -1.76505802384073
C           -3.29549829963686       -0.47810015257482        0.29595069966883
C           -2.38698116116311        0.76789297773561       -1.53835191535102
C           -4.19197678534360        0.54434348670386        0.54764962955993
H           -3.27904225398269       -1.35739268271477        0.92214491525425
C           -3.28163696204329        1.79307301165638       -1.28343372723055
H           -1.67788008984127        0.85612172557277       -2.34911677208242
C           -4.19031080847628        1.67998632908884       -0.24531552029458
H           -4.89476837995865        0.45428472761630        1.36293141553041
H           -3.27014055446671        2.68135033032802       -1.89808405422506
H           -4.89474429461695        2.47614303124785       -0.05408095985320
C           -2.15059919867258       -2.76741834994100       -1.50835682800418
C           -1.19409045857473       -3.75369063178943       -1.96319277693311
H           -2.82315580890241       -2.49637488240475       -2.32701749348875
H           -2.73612498944077       -3.18200108920938       -0.68515000733007
C           -0.37054840185623       -4.54140839499259       -2.32723295875567
H            0.33375425195135       -5.24877547940513       -2.64878807743189
Cl           0.18558729827435       -2.22368254301931        2.66004907816741
Cl           2.46232632453928       -2.18167318924057        0.60687824120003
O            0.95112969477202       -0.27647358236616       -0.74425128388299
O            0.67624198473036        0.24140784723638        1.65159460847522
C            1.84599434564321        1.84666160078262       -0.37884233238364
C            0.68135743877507        2.22897678761557        0.33263931411799
C           -1.14695958870992        1.63555579459123        1.75368921113379
C            3.12017324608264        0.12095103654022       -1.41061966850602
C            4.15860869411214        0.97284343945796       -1.66657452718597
C            2.88473700649432        2.75148209238297       -0.69369134619194
C            4.02446500646371        2.33120832268289       -1.31704178726440
C            0.09330735275450        3.50656870459346        0.19270049850774
C           -1.09554320884730        3.81645630681757        0.78314291184017
C           -1.75372258127209        2.83878436479643        1.56854733693675
H            2.77650746816510        3.77561382110381       -0.37561746458330
H            4.82317840670169        3.02426645348134       -1.52631941971136
H            0.58900703974883        4.21776548286243       -0.44836324242096
H           -1.54439919770162        4.78607935350352        0.64374002871244
H           -2.70738905136644        3.04112077239048        2.02217031120525
H           -1.54702627600643        0.84994546141918        2.37509614897601
N            1.99906705262210        0.54936350532074       -0.82050608828639
N            0.04227739950470        1.35607151464440        1.19583670373242
H            3.12922345547227       -0.92492786578751       -1.67188546852755
H            5.05390053959141        0.60407327017697       -2.13530729321003
