45
 energy: -80.354062778309 gnorm: 0.000969154211 xtb: 6.5.1 (b24c23e)
Si           0.51410987286548       -1.56669430585028       -0.34581054414570
O            1.58108096475737       -0.42399130651598       -0.79260401276828
C            2.46971415258862        0.51766639373170       -0.22458249106307
C            1.69275751578860        1.50895562719180        0.60973818211117
H            2.88810258422974        1.03982551451462       -1.09876222890259
C            1.05796162820450        1.11385477919412        1.78127266025260
C            1.55076130564667        2.82032441205333        0.17420902907562
C            0.26913469287309        2.00901421148064        2.48203387445189
H            1.16458145543078        0.10146392951704        2.13691397192732
C            0.77493196626568        3.71894282486408        0.88499829332601
H            2.05194801392315        3.13974899853863       -0.72879012404881
C            0.12183806231635        3.31125978587448        2.03496501586333
H           -0.22997996704043        1.68719253150870        3.38417150806604
H            0.67678308530454        4.73668163762695        0.53644669916328
H           -0.49403199194042        4.00812599657269        2.58452938517854
C            3.63430420405354       -0.11585498376104        0.55188778854733
C            4.43831176697198       -0.93741891588956       -0.32703510663455
H            4.24264556118033        0.69134944911334        0.96961540631841
H            3.25215877069210       -0.73636105629266        1.36273732097359
C            5.06559348757582       -1.59908544216469       -1.10181858154631
H            5.63067554260542       -2.20459166161853       -1.74509187717439
Cl           0.45557102303471       -3.26308126817766       -1.47183291406905
Cl           1.51781178232974       -2.45211148159926        1.31765043359431
O           -0.67293624780212       -1.15114730563194        0.82479416063482
O           -0.67153499966513       -0.88772687141306       -1.62466796598580
C           -2.49260155861411        0.24204096517017        0.10531482673090
C           -1.73357648271385        1.02701688607407       -0.79665558359310
C           -0.07829018194968        1.14431949448581       -2.49952323818657
C           -2.81053874334395       -1.81361966465976        1.28332580510630
C           -4.12521845574181       -1.55010891820968        1.50923037608999
C           -3.83016089550831        0.57171573269950        0.43321568111060
C           -4.63765860035927       -0.29019469090893        1.11302966585298
C           -1.91215085553197        2.42358375617599       -0.93361296823998
C           -1.18152699903841        3.14983826992231       -1.82792875399275
C           -0.22936595670500        2.49620733432432       -2.63387050071216
H           -4.21955321831195        1.50840211003448        0.06921527742361
H           -5.66169572900468       -0.03332934492169        1.32879725605868
H           -2.61035170886681        2.91210910971648       -0.27446706593517
H           -1.31650339487320        4.21617373641182       -1.90866691054725
H            0.37129777033768        3.04133823286869       -3.34094069295721
H            0.62024869562042        0.55698871020156       -3.07406090669903
N           -2.00797758556236       -0.93098752086782        0.66068305110327
N           -0.81977396345101        0.43872534079256       -1.64171629200115
H           -2.31419773589452       -2.71235294180500        1.61576367587787
H           -4.75153363267898       -2.27711409036975        1.99554341436339
