45
 energy: -80.350900818325 gnorm: 0.000802352682 xtb: 6.5.1 (b24c23e)
Si          -0.06297525259240       -0.44960115678402        0.61177098296045
O            1.50985777878408       -0.15223613771041        0.24032834877160
C            2.65866479489235       -0.95054678655957        0.30487403702662
C            3.80713785902069       -0.20524957737468       -0.32875755846857
H            2.47447219272175       -1.88782798575146       -0.24100482258255
C            3.94418326824892        1.16063642622060       -0.12447728443725
C            4.75592633188108       -0.87759074661828       -1.08640302247496
C            5.01132153411168        1.84607977906159       -0.67610829959940
H            3.19973095520328        1.67767560569441        0.46111598566361
C            5.82668057932358       -0.19238607510717       -1.63311315476933
H            4.65288603491457       -1.94092354653220       -1.24929613225168
C            5.95612267192741        1.17066008499333       -1.42986053237495
H            5.10872597581212        2.90992276845230       -0.51564557279009
H            6.55997292252511       -0.72324702639052       -2.22261197295598
H            6.79046407118762        1.70527933554685       -1.86000258366199
C            3.02894338046597       -1.29654897272724        1.76530718011866
C            2.14816867482091       -2.30314559593308        2.31276383162362
H            4.05932748065336       -1.66183927269914        1.78850500293332
H            2.95831759770915       -0.38488012517230        2.36347221308482
C            1.40277379072747       -3.14433930468673        2.72285848448903
H            0.75329881702451       -3.87594181320304        3.10009426952139
Cl           0.00590408713336        0.26555161597194        2.54876088253695
Cl          -0.14638222580240       -2.34376384680869       -0.27420940550806
O           -0.56293548060209        0.71687423348163       -0.53096447803417
O           -1.89288930915230       -0.64903240971107        1.06556163927307
C           -2.85268987959114        1.36447109283189       -0.53688160030884
C           -3.33036809208473        0.03368515981234       -0.64647104961299
C           -3.19453030493418       -2.24065202992710        0.03457616590744
C           -1.10393424296643        2.85896497137046        0.11142970831448
C           -1.94378876147068        3.92896137204283        0.10832283489280
C           -3.70700130072234        2.48539334062697       -0.64253985913625
C           -3.27812463129520        3.74183295333789       -0.33057930310186
C           -4.39708375098394       -0.32637930498053       -1.50024659176701
C           -4.82558759332837       -1.61942795665262       -1.59483898558188
C           -4.20076677579892       -2.61066388873580       -0.81398056636238
H           -4.73573005261439        2.31007939219678       -0.91299790033572
H           -3.94919300804015        4.58312082795843       -0.38582807346875
H           -4.83257358064733        0.44343249146699       -2.11619907265670
H           -5.62442799643899       -1.88527759497575       -2.26818132152790
H           -4.50500317593427       -3.64084645044895       -0.87314681330346
H           -2.67900682978364       -2.93124510132359        0.68184458214461
N           -1.52382603084867        1.63926053647749       -0.26294521634654
N           -2.79309681731944       -0.96921158596111        0.13093381217552
H           -0.05935612286549        2.91141776951457        0.37423382797953
H           -1.59443358326472        4.89700653571801        0.42152138400281
