45
 energy: -80.355362563010 gnorm: 0.000801037624 xtb: 6.5.1 (b24c23e)
Si           0.24049644152889       -0.23335784187291        1.26515211293799
O            1.06688741212844       -1.34341022907170        0.42654793211804
C            1.60580736169978       -1.27918096766168       -0.87504379625768
C            2.74816443466840       -0.29989222113757       -0.92658805486068
H            0.82074253223506       -0.95909874881854       -1.56977440954745
C            3.64288907420759       -0.22411550774749        0.13222318996342
C            2.90445707173887        0.54854302742795       -2.01330286056291
C            4.67738045596377        0.69341776956802        0.10681937667744
H            3.50827693271171       -0.87270213410998        0.98476233370816
C            3.94327926141550        1.46228495479480       -2.04067664165342
H            2.20380836810538        0.49759480723076       -2.83506841193313
C            4.83028710852031        1.53721327762307       -0.98021019761526
H            5.36256975475922        0.75223544114309        0.93915051852484
H            4.05571622495491        2.12252855234832       -2.88863354642777
H            5.63578291930918        2.25651906156741       -0.99902322501338
C            2.06156937585549       -2.70069750949168       -1.24882262451014
C            0.91259222622448       -3.56551817698921       -1.40557853464338
H            2.62923509437529       -2.66306953297590       -2.18206978500944
H            2.70350838822404       -3.08264388524221       -0.45222819382260
C           -0.08570045031367       -4.21500671607981       -1.52232945259573
H           -0.92908637966349       -4.82759061327148       -1.63686691362553
Cl           0.96615946998176        1.56453949614923        1.98579330504090
Cl           0.52832824925134       -1.27279027357943        3.06615389309867
O           -0.17368159724995        0.64773886351294       -0.37918727074257
O           -1.45515953088173       -0.46696914078103        1.41610209288493
C           -2.37898765045017        1.40552667704933       -0.51083242964600
C           -2.85118759917165        0.07104248543493       -0.43520196513370
C           -2.47205671591503       -2.18376620455649        0.26700185948310
C           -0.54214296507569        2.91667969751980       -0.41326688835269
C           -1.35906696386806        3.99965016721692       -0.58685781251350
C           -3.22816416250377        2.51132938854614       -0.73859415284820
C           -2.73902075840218        3.78575828076309       -0.77050554075805
C           -3.93922219628188       -0.39963663046212       -1.20465229872550
C           -4.24508563765004       -1.72716702112691       -1.26835400047075
C           -3.45525294944661       -2.65599769550832       -0.54632557977813
H           -4.28521504715158        2.32497424714393       -0.83660207264719
H           -3.40041761889766        4.62359176590448       -0.92098277817637
H           -4.48579785448978        0.31766261143631       -1.79556289995434
H           -5.06028208149401       -2.07601287437374       -1.88077330950352
H           -3.63978276362747       -3.71317291831446       -0.62007901983571
H           -1.85610279967149       -2.80721380013463        0.89632334334298
N           -1.02956782494086        1.67166972360722       -0.40206501880198
N           -2.22698151182127       -0.86736103428516        0.36857428210218
H            0.52708656814906        2.98861277600191       -0.29299165106015
H           -0.94373066703963        4.99195660560239       -0.58921890285627
