45
 energy: -80.356070488857 gnorm: 0.000772622698 xtb: 6.5.1 (b24c23e)
Si           0.35029206542694        0.17776470814482        0.58220073597336
O            0.99864181151127       -0.62467419263432       -0.66243532586733
C            2.16582383319323       -1.41308815940201       -0.68985575241744
C            3.40178032456858       -0.55694314265588       -0.58979067279013
H            2.14361648035783       -2.11304666498138        0.15535094024908
C            3.43038952576101        0.69426031446901       -1.18955048639082
C            4.51495062058132       -1.00689234520688        0.10598168527024
C            4.55679796400779        1.49039602082307       -1.08809520786631
H            2.55490036736836        1.04474877153159       -1.71552413308013
C            5.64410226353313       -0.21309238641687        0.19943280588028
H            4.48866996723341       -1.97419548101527        0.58626640595755
C            5.66646411737709        1.03690323126262       -0.39574782320858
H            4.56772364265693        2.46772641588618       -1.54800106251552
H            6.50474025452702       -0.56683390031336        0.74787599149682
H            6.54526946794615        1.65950010287078       -0.31343006535524
C            2.15324861809437       -2.20077203768818       -2.01209818294063
C            1.02056146037367       -3.09884221795381       -2.06069667441990
H            3.08259973887028       -2.76925252429791       -2.09682191259982
H            2.09067840482820       -1.49078620250655       -2.84022509913253
C            0.06520837536519       -3.81933700558853       -2.07030137242646
H           -0.75768501404017       -4.46896523110218       -2.09239078428695
Cl           1.12509962873752        1.94389813681296        1.35221102241244
Cl           1.17218073712530       -0.97790126951788        2.20144565948658
O           -0.52668274115625        1.12754469431495       -0.72172427558979
O           -1.19246225360266       -0.38593980069416        1.09981929321757
C           -2.79127808306082        1.51340039888137       -0.25962729137785
C           -3.05025627135920        0.12150426653426       -0.29389966448092
C           -2.23589830468272       -2.10629597939389       -0.01435153657709
C           -1.20383160938385        3.28602251888141       -0.28434911153430
C           -2.17720139311052        4.22867039630665       -0.10610013375464
C           -3.81317372902192        2.48141021353600       -0.12966982710035
C           -3.52282514476906        3.81241344416890       -0.04724952506722
C           -4.21862875540390       -0.42583040841665       -0.87248993874136
C           -4.36131645391600       -1.76994202753485       -1.05213386842407
C           -3.31669083869154       -2.63699738820480       -0.64971953968644
H           -4.82987083309107        2.13395351764384       -0.04400828610483
H           -4.30870729955284        4.53971841566877        0.07695681155986
H           -4.97292214980006        0.25769201619045       -1.22728083489671
H           -5.24549906629342       -2.17290738513457       -1.51833218627015
H           -3.38130930859159       -3.69672326519372       -0.82297592585725
H           -1.41736713982616       -2.69229016941124        0.37347095848247
N           -1.50111379338335        1.98553873528108       -0.38814966103142
N           -2.13972424539649       -0.78736862563038        0.21071558598652
H           -0.15473198448383        3.52062842055355       -0.36338163833060
H           -1.91209025682880        5.26783407112769       -0.02155609585551
