51
 energy: -86.693974328725 gnorm: 0.000402569439 xtb: 6.5.1 (b24c23e)
Si          -0.51471133546669       -1.47595919617713       -0.15533900012794
O           -1.59668197963476       -0.47773351059050        0.54361182984033
C           -2.83629752898227        0.00190526401353        0.07833096003180
C           -2.64021415805254        1.02071879286495       -1.01500164900524
H           -3.42506127275497       -0.84126981731312       -0.30040564344167
C           -1.63438161215687        1.97046732476429       -0.89799403303504
C           -3.44979742592477        1.02287621249676       -2.14129354201246
C           -1.43279128470248        2.90372554528948       -1.89802245544771
H           -0.99922155431586        1.96750873954001       -0.02368575033671
C           -3.25309859529265        1.96221689079865       -3.13764101917034
H           -4.22246711580890        0.27578311426259       -2.24330506418317
C           -2.24378701847506        2.90259068615964       -3.01964477178487
H           -0.64037140974734        3.63262868973766       -1.80179140528234
H           -3.88369990760469        1.95369538114627       -4.01437706804939
H           -2.08580321869275        3.62976012184982       -3.80277814801119
C           -3.56281464591499        0.64417958039460        1.27550861687035
C           -3.69951882243374       -0.30278897973895        2.36124472425549
H           -4.54859124176959        0.98319765450687        0.94785883909505
H           -2.98680938888338        1.50935665866983        1.61660648839234
C           -3.76646645933480       -1.11035061853189        3.24154753840477
H           -3.84946652925311       -1.81366005019263        4.01525666091722
Cl          -0.18824570582738       -3.43995760723607        0.32307379481916
Cl          -1.63468567752806       -1.89094716368518       -1.93477164392461
O            0.62552527200231       -0.64893939737420       -1.15140109767629
O            0.59113554206666       -1.14042108145630        1.28073225023617
C            2.59081019801226        0.07725784331721       -0.02416318224605
C            1.77358397548339        0.83766757797044        0.87694944832378
C           -0.01809141610703        0.74657551107102        2.45193481979397
C            2.62672557137884       -1.64589803321519       -1.69421325146881
C            3.98490564934664       -1.71064020051343       -1.66053468547391
C            4.00063023731961        0.01850724706993        0.03490093807218
C            4.68276328407295       -0.85096203973468       -0.78586808462395
C            1.88338916286856        2.22858292314324        1.10149284894397
C            1.06844165314082        2.83007176967611        2.03323653358403
C            0.11799789603553        2.07479667326370        2.74461506747468
H            5.75652711428886       -0.91964844475169       -0.71619609497635
H            1.12869074021537        3.89615051196046        2.18724474304995
H           -0.52222308752924        2.53715432954120        3.47604453745968
H           -0.76385845997360        0.10298470169915        2.89041818546985
N            1.96553698669111       -0.74935249552956       -0.94456653947039
N            0.78328009026935        0.15798453668242        1.56096760983856
H            2.00312209180793       -2.26972991815747       -2.31417164671794
H            4.51110789046997       -2.42520128033934       -2.26884526305952
C            4.76817597206532        0.79765266023641        1.05965365641164
H            5.24588477382444        1.66395490832150        0.60512093590784
H            4.12656501997673        1.13373120615304        1.86813660592176
H            5.55403889062604        0.17065733129063        1.47508553377151
C            2.78317139802341        3.07621180207091        0.25407932627622
H            2.22840845480289        3.94199618329298       -0.10324485843888
H            3.62781197695597        3.44668563124393        0.83227740107231
H            3.15459501042454        2.52337483003971       -0.60320599626773
