51
 energy: -86.691783339790 gnorm: 0.000564497515 xtb: 6.5.1 (b24c23e)
Si          -0.27636908448690       -1.38235318020415        0.42665681635958
O           -1.42307086321849       -0.69292109360208       -0.47656245970682
C           -2.80668683783940       -0.52122469326548       -0.28978415578209
C           -3.11260926481075        0.95547417021408       -0.30995079819640
H           -3.10308211680126       -0.95383333003417        0.67362243371507
C           -2.42004283707922        1.79122122506137       -1.17682016038864
C           -4.07206733577993        1.49565996070092        0.53532319104724
C           -2.68183217390010        3.14906429764224       -1.19673049497473
H           -1.66463701277505        1.36627045347018       -1.82031396120586
C           -4.33687343354625        2.85387069183338        0.51080160370146
H           -4.60603520445609        0.84951485063459        1.21688980607954
C           -3.64217460977962        3.68290874002530       -0.35403927543121
H           -2.13612673678489        3.79208316175831       -1.87217290637960
H           -5.08403557380932        3.26726615309669        1.17220606446214
H           -3.84837320232453        4.74326021280594       -0.36960077539899
C           -3.55506217508331       -1.25264733910208       -1.41992360999352
C           -3.32231055113077       -2.67817843021933       -1.32876929302948
H           -4.62390042804503       -1.03985031038378       -1.33598735091861
H           -3.18928809867867       -0.88214813539678       -2.38078003963548
C           -3.09440547088521       -3.84694821388706       -1.21573718004408
H           -2.89670206780752       -4.87253668019309       -1.12296147790261
Cl          -1.45425765641971       -1.81998761696330        2.18795917833820
Cl           0.35271832379976       -3.33941694688917        0.26764730418704
O            0.81204790557168       -0.90328247333899       -0.97916024932997
O            0.65553640750473       -0.29563177598241        1.40903198541292
C            2.76338370595175        0.16220718534032       -0.25182203998706
C            1.92407388467418        1.25574720069455        0.14438407565406
C           -0.11154942390205        1.87399874642313        1.25286155046769
C            2.81346638822409       -2.03407586520134       -1.18666139788906
C            4.17480007585239       -2.08874584901794       -1.08226011799095
C            4.16453442678664        0.11046007551054       -0.08358841578493
C            4.85582641180166       -1.00183930395721       -0.50703343087849
C            2.07296139969982        2.59288464444246       -0.28252265572751
C            1.14444574083213        3.53656974969309        0.09470620387578
C            0.02884544682927        3.17464221430909        0.87945865933712
H            5.92267696266393       -1.05621596805254       -0.35758757232590
H            1.24040161666272        4.55103958861250       -0.25792718649350
H           -0.71930620085541        3.89948515798248        1.14791402804593
H           -0.94290486511075        1.49511159669973        1.82487115857610
N            2.14138317015901       -0.94537759782680       -0.79992004193320
N            0.82238059302368        0.96657853136682        0.93246468656397
H            2.20720366285768       -2.83618686041587       -1.57349908707639
H            4.70617218936069       -2.96623366009967       -1.40658795086255
C            4.89481203214440        1.19259157528861        0.65239482232855
H            5.50088975710583        1.78586438538355       -0.03010139167444
H            4.20692599169133        1.84796960166210        1.17730610601226
H            5.56805277001950        0.74062518966046        1.37823437761587
C            3.15958112062106        2.98210624349888       -1.23860938251492
H            2.75308285950365        3.65025835031833       -1.99450222551743
H            3.95422146074739        3.51731230854164       -0.72219360666115
H            3.58380392122098        2.11327006136276       -1.73170836014615
