51
 energy: -86.691788370654 gnorm: 0.000612079401 xtb: 6.5.1 (b24c23e)
Si           0.17779711212752       -1.40175375917771        0.19163617718530
O           -1.16538297050196       -1.00407579840844       -0.61242310986310
C           -2.50289347393321       -1.41702721472782       -0.48872317308740
C           -3.38487947948561       -0.19728995200836       -0.39137221001668
H           -2.61370391831192       -2.03299774484318        0.41265657409042
C           -3.01540109565801        0.98165311517546       -1.02562340737559
C           -4.57534909245312       -0.24220302235238        0.32274465039098
C           -3.82143157000776        2.10286496063344       -0.94117818269375
H           -2.08585863114951        1.01097350983694       -1.57400281516565
C           -5.38484807290537        0.87736452086383        0.39909136746136
H           -4.86278359845069       -1.15575521264985        0.82337039224438
C           -5.00878657981899        2.05259181992341       -0.23058659088935
H           -3.52316017192663        3.01696290451204       -1.43461135130465
H           -6.30967548791864        0.83444860904569        0.95587159557740
H           -5.64057004064249        2.92656169451359       -0.16684632234192
C           -2.88218480775426       -2.25999756391032       -1.72194046995257
C           -2.09113893107734       -3.47128224434935       -1.76141470049771
H           -3.94581258682245       -2.50682065152463       -1.67248846456565
H           -2.69194780409588       -1.66852178045808       -2.62131734323255
C           -1.40250164626372       -4.44936339307956       -1.75192742151506
H           -0.80271449492932       -5.30968159068568       -1.75312304585048
Cl          -0.73667802903514       -2.40338614327602        1.87595989440144
Cl           1.43316307501831       -2.99758389495876       -0.17194067559582
O            1.00129427760829       -0.43799265944433       -1.15208504144000
O            0.73477310913397       -0.18714724405397        1.29268266917003
C            2.55055084155634        1.08680458434890       -0.28520324964652
C            1.42626652758016        1.81323309486407        0.23016684878774
C           -0.69551675390687        1.62428034997008        1.33394821491001
C            3.24428881242172       -0.83944776972633       -1.51181281607346
C            4.55847334762627       -0.47947830430668       -1.40799630939528
C            3.90438010400820        1.44774552299380       -0.10818447423090
C            4.89047315827976        0.67387638722769       -0.67634745557362
C            1.14564835543814        3.17085050435067       -0.03418936693252
C           -0.03394586696065        3.72220042867051        0.41328555233432
C           -0.97868763853862        2.93531920178670        1.10633402371132
H            5.92659470278255        0.93264168819120       -0.52489855968446
H           -0.26434565600047        4.74988457157437        0.18201066191034
H           -1.92117553737688        3.34873436272090        1.41986938848383
H           -1.36208327618228        0.93836404372203        1.83098934214848
N            2.28247063746391       -0.07878412713096       -0.98036801413566
N            0.48084784242445        1.10486462916600        0.95329838909595
H            2.90298496732965       -1.73038601695649       -2.01196870649854
H            5.32277454501572       -1.09317887961113       -1.85152273827211
C            4.28758075376974        2.58974454407482        0.78351149842928
H            4.66544824808519        3.42883067932967        0.20202772961545
H            3.44578337802226        2.92323284907518        1.38226795033887
H            5.08519107184250        2.26982647704398        1.45125546547352
C            2.05243037427036        3.99432624204199       -0.89770445530726
H            1.45512095323366        4.59730180478695       -1.57819257809593
H            2.64636024425504        4.67597765775692       -0.29126271693785
H            2.72139677281417        3.36869320944137       -1.48030061958743
