51
 energy: -86.691428619429 gnorm: 0.000932194760 xtb: 6.5.1 (b24c23e)
Si           0.51649568860687       -0.20375965988098       -1.16109124520475
O            1.29521427338752        0.85251829758731       -0.21401749562840
C            2.58414734272045        1.39818639720096       -0.38594118666981
C            3.64015435798368        0.32502405038466       -0.33815920703354
H            2.62755954165299        1.90463561342392       -1.35859901590310
C            3.51686882380447       -0.72370450341273        0.56268037674724
C            4.72991789191174        0.36453691074949       -1.19587297492292
C            4.46740030251704       -1.72753278522540        0.59943499301815
H            2.65724901435989       -0.75823832968654        1.21520539372362
C            5.68487213808874       -0.63544371598453       -1.15200922241978
H            4.81886232998652        1.17076752806173       -1.90937398090163
C            5.55459080290469       -1.68342561381916       -0.25637456999701
H            4.35657918975084       -2.54713748370731        1.29365901654108
H            6.52667216107358       -0.60317083889512       -1.82814116162774
H            6.29542519260501       -2.46919612770308       -0.23146839254415
C            2.79948421922846        2.42205463922697        0.74197495810140
C            1.84314308915524        3.50304359068696        0.64873068554062
H            3.81615634057195        2.81712207292521        0.67318126687773
H            2.67751033779590        1.91314382083818        1.70104968862320
C            1.02808964325369        4.37240978922015        0.54187068607752
H            0.33236934877395        5.15383499710457        0.47327620751477
Cl           1.56673906918304        0.20865503540331       -3.00838949257264
Cl           0.91808184226446       -2.23242442873740       -1.30580503600681
O           -0.50481198944039       -0.49864891074820        0.34269047330814
O           -0.91114690359309        0.38322466989177       -1.92986152628494
C           -2.78519551327475       -0.59206745387302       -0.19592283676088
C           -2.71153607913743        0.81647518566056       -0.45043829371270
C           -1.41285613615547        2.57735046925069       -1.43329273133340
C           -1.58057771956641       -2.53022474946575        0.50242713269957
C           -2.70280952194395       -3.30554967893556        0.42455059412071
C           -3.94262733661421       -1.38666073043748       -0.35672494181843
C           -3.89672597450935       -2.72399985871354       -0.03598750220157
C           -3.54795112299903        1.78982257752225        0.13940880689282
C           -3.31276209792173        3.12460045544376       -0.09926544214461
C           -2.22184454466796        3.53058719824005       -0.89708912726868
H           -4.77229305589851       -3.33765319427921       -0.17814531684163
H           -3.93243974694026        3.86892936999333        0.37492897124535
H           -2.01536194237181        4.57376093454249       -1.05999419251495
H           -0.54186919429619        2.78680680974005       -2.03258054899236
N           -1.62553248529807       -1.22612570018172        0.21251664857708
N           -1.68376793849698        1.27638278273352       -1.25589084466446
H           -0.61311581419484       -2.90456411735038        0.79192125267090
H           -2.65520633586577       -4.35077653916474        0.67487735354387
C           -5.18272603852982       -0.82589708112510       -0.98513212289699
H           -5.98672657375613       -0.74216522773827       -0.25605887363749
H           -4.99809768010816        0.14906245649900       -1.42478117559155
H           -5.52144589124372       -1.50182576052478       -1.76831827539317
C           -4.61678888619077        1.40558278844942        1.11720587205051
H           -4.59761237758936        2.09284516620070        1.96035328142900
H           -5.60178011854971        1.47649996948565        0.65890982996950
H           -4.47274492242468        0.39545891310648        1.48719024421456
