51
 energy: -86.689950249523 gnorm: 0.000502810876 xtb: 6.5.1 (b24c23e)
Si           0.78119667939292       -1.55176913360149       -0.19942161026018
O            1.76363668022037       -0.37976582487481       -0.74033007403952
C            2.73911830190560        0.55497518062786       -0.33962836801353
C            2.07867136520346        1.70431475528365        0.38553259643912
H            3.15494950460289        0.92425905325776       -1.28986443512962
C            1.31977071646974        1.47763021008376        1.52667132831006
C            2.19448471402319        2.99890424663778       -0.10420121894756
C            0.67187765674338        2.52764999379356        2.15269895172341
H            1.22588843931557        0.47697258801017        1.91859677668463
C            1.55752461145823        4.05031008638841        0.53047389300231
H            2.78904827231072        3.18402513116636       -0.98772725876031
C            0.78798416338500        3.81528620972309        1.65677702436558
H            0.07868960733965        2.33883994061665        3.03544202021379
H            1.65891743134552        5.05336198660867        0.14216929284098
H            0.28675442842966        4.63567293730104        2.15046821883277
C            3.89692284041420       -0.03563379056435        0.48169799330833
C            4.53530062238881       -1.10907128613833       -0.24903517896067
H            4.61512956729289        0.76644243931526        0.67505302222444
H            3.52587633341040       -0.42180986166208        1.43147388534032
C            5.02089584234531       -1.99292796560804       -0.89228690330840
H            5.45639090308399       -2.78126462292731       -1.42920862696882
Cl           0.71565922570781       -3.34257264012840       -1.17273188971649
Cl           1.88391093178820       -2.27421386103956        1.48512012667317
O           -0.43127485921914       -1.11484085609401        0.94956522729415
O           -0.44395934057337       -1.00416457894319       -1.51873631054339
C           -2.46655258347894       -0.24912891769717        0.07848483093886
C           -1.71702150727641        0.74791193951083       -0.62719007602192
C           -0.02023702373815        1.13237785665956       -2.25390951576256
C           -2.35117764843430       -2.35583751658403        1.22442718885692
C           -3.70454337687466       -2.48680544386422        1.20802069477049
C           -3.87407890243364       -0.36464783833314        0.05091504045778
C           -4.47876351494956       -1.46045262305767        0.62366000800867
C           -1.89479334322709        2.14375225952235       -0.50228234187649
C           -1.16924551312656        2.99307338022655       -1.30447880325034
C           -0.24038621438807        2.48097165099664       -2.22582523922638
H           -5.55049256477688       -1.56700346148074        0.57209892991782
H           -1.28487587775355        4.05974358449135       -1.19619123350344
H            0.32364918424167        3.13664295794528       -2.86586482065608
H            0.71857538375744        0.65278755407551       -2.87456076461519
N           -1.76656478945846       -1.25320021034417        0.72780708515549
N           -0.73093189169320        0.30317087153864       -1.48705864353169
H           -1.67424187472745       -3.08556102123417        1.63888434266683
H           -4.17131729796185       -3.36901865621269        1.60984218435726
C           -4.71905948525486        0.62324825915405       -0.69454939044989
H           -5.18710736168774        1.32524965159504       -0.00654045251241
H           -4.13292274655279        1.18136209111551       -1.41805376584515
H           -5.51417058425939        0.09715082414477       -1.21819808448623
C           -2.76572532744738        2.71343313888589        0.57576727507860
H           -2.19367804002774        3.45294635473944        1.13354961714858
H           -3.63324475093173        3.21746533819531        0.15357915540670
H           -3.09972798632186        1.94313363877645        1.26344129636766
