51
 energy: -86.688084113786 gnorm: 0.000653716699 xtb: 6.5.1 (b24c23e)
Si           0.59479983156712       -1.03893140578585        0.72979551549536
O            2.20976785680820       -0.79649457823433        0.49265750574684
C            2.85307455153062       -0.43851940599547       -0.70697938301046
C            2.87286607478909        1.06342983832584       -0.83617301855525
H            2.31482954855944       -0.87341470673424       -1.55946569674313
C            3.21906082970153        1.83832804741800        0.26442829834014
C            2.52805334130570        1.68912746347325       -2.02517749042567
C            3.22062461191195        3.21930294759159        0.17569670503236
H            3.46458821734349        1.34689680224485        1.19447060353078
C            2.53018557978596        3.07059889993713       -2.11382238114052
H            2.25002831260311        1.09098135676745       -2.88123070122264
C            2.87629887526467        3.83838197036570       -1.01477891908062
H            3.48968017924909        3.81388715683603        1.03724665606114
H            2.25638755548504        3.54970280904584       -3.04274200662134
H            2.87479342359985        4.91634191655122       -1.08439944493111
C            4.28616290750465       -1.00172223537775       -0.68059157184285
C            4.26435613285953       -2.44562728960747       -0.77045178232607
H            4.84971207363646       -0.58459368045970       -1.52009430319631
H            4.76053797249020       -0.70115052711064        0.25628089280431
C            4.19276148754485       -3.63686490871548       -0.85471786413034
H            4.14599901420270       -4.68243970388845       -0.92167313470929
Cl           0.87980281286664       -0.94405501370068        2.75639338696663
Cl           0.40933744584936       -2.59606124468278       -0.66316823502180
O            0.06235217350614        0.36445943868142       -0.14663400543638
O           -1.17551757530150       -1.29302164457310        1.24686500589208
C           -2.18143215708666        1.02735490792404        0.27543123017852
C           -2.63872439798511       -0.22874851308607       -0.24605590789828
C           -2.53337448537983       -2.60519640642474       -0.06666862901999
C           -0.29725838417151        2.33303999342390        0.99013170387552
C           -1.10409197684098        3.32819938615754        1.44534366431084
C           -3.03755258458740        2.03702559130411        0.76890203938144
C           -2.50277920586609        3.17463069464056        1.32901808842205
C           -3.57602834667096       -0.36529040929229       -1.29549137680098
C           -3.99997450189682       -1.62062615159287       -1.66709429067268
C           -3.49600903219272       -2.76319977829405       -1.02335629572988
H           -3.15729073163178        3.92846079234702        1.73628447438865
H           -4.69529430498583       -1.72875272102410       -2.48475520758644
H           -3.82341083271316       -3.74892177464818       -1.30371212156845
H           -2.05052847562870       -3.42416152718399        0.43973224302109
N           -0.81745257779560        1.25041485752127        0.38939717628163
N           -2.12958520082447       -1.38747462323552        0.30591672175496
H            0.77937961247886        2.34708683844887        1.05136678564875
H           -0.68091625836159        4.19835383210938        1.91579904402168
C           -4.52361884222236        1.84413218589711        0.80845455535285
H           -5.01086039741039        2.44608561879752        0.04342435598601
H           -4.79604843003392        0.80357218847295        0.66375587416601
H           -4.90219536845326        2.17280812260713        1.77405663704219
C           -4.02183883320911        0.82392865085709       -2.09218744585711
H           -3.89487906865313        0.60935886851860       -3.15190883748844
H           -5.07725109148568        1.03130507283391       -1.92559633539500
H           -3.44253936105548        1.70824400054795       -1.84619277729116
