51
 energy: -86.686573018403 gnorm: 0.000569025063 xtb: 6.5.1 (b24c23e)
Si           0.34798353572819       -0.28298151194264       -0.04309890694341
O            1.91435912939270       -0.66522276940794       -0.09855767261181
C            3.02550636728869       -0.41774909195381        0.72394100422298
C            4.19642328090225        0.01734516221770       -0.11910683192732
H            2.78123241493107        0.36271906223204        1.45350693909484
C            4.31052670272020       -0.39872159792253       -1.43820082444416
C            5.18805474080857        0.81865638283013        0.43227724476449
C            5.39965578748481       -0.01092868596353       -2.19869636407132
H            3.53275007384300       -1.01391754673360       -1.86371338487977
C            6.27991742963794        1.19859727504613       -0.32707127610756
H            5.09813666535242        1.14798558488675        1.45791558399491
C            6.38708820795389        0.78554231782020       -1.64476987526603
H            5.47766333383335       -0.33309660382072       -3.22681417777408
H            7.04645663319143        1.82289400736416        0.10867617004567
H            7.23740291733624        1.08761333931336       -2.23869732413913
C            3.36892935107835       -1.72117068306678        1.47522604388223
C            2.27759468478880       -2.10076858780681        2.34506325126551
H            4.28042480310690       -1.56834468192916        2.05832353299798
H            3.54205106284887       -2.51002281738568        0.73828618999438
C            1.33120676828993       -2.36647481267579        3.02737534462851
H            0.52060902451457       -2.61023663250569        3.64637873288049
Cl           0.53517276560311        1.09950734300084        1.64912709344755
Cl           0.12232110100624       -1.67770970690673       -1.67319294980597
O           -0.43563232731388        0.88587905215766       -1.03470663521653
O           -1.03585239233092       -0.87702176382023        0.79943989989732
C           -2.62198318551663        1.15992050427021       -0.17952917880755
C           -2.91265583867145       -0.22190742653434       -0.47121065566354
C           -2.31212954593093       -2.52472720349765       -0.18880422074677
C           -1.02337391646878        2.94603932839931       -0.18226712540890
C           -1.92501795810807        3.81591815356253        0.35196539504210
C           -3.56019843935632        2.03402280007067        0.41060152627463
C           -3.21480868095492        3.34438926541137        0.66038024535290
C           -3.99180325798840       -0.62770578538582       -1.28367128176110
C           -4.22417236699381       -1.96975251307249       -1.49459773105282
C           -3.37914172216728       -2.94032111485946       -0.92667225578329
H           -3.92175472090118        3.99892443178096        1.14484147172990
H           -5.02787123056575       -2.27466265632667       -2.14571102252350
H           -3.53757404445707       -3.98857708521515       -1.10908240314635
H           -1.57542035682941       -3.18523066432511        0.23635644865526
N           -1.37658109042896        1.68693655268736       -0.47351618995672
N           -2.12178619154712       -1.22307974367520        0.06374718240054
H           -0.00058637238472        3.19765820297369       -0.40800731647615
H           -1.63848204118431        4.82974821605256        0.56989082814277
C           -4.89424284427102        1.53873776716084        0.88247003928766
H           -5.69246305093932        1.92838496028810        0.25315612433552
H           -4.94397783385351        0.45466175035381        0.88305745510041
H           -5.07106850469036        1.89672855707330        1.89475385900914
C           -4.82399479930513        0.37319557684935       -2.02758983662852
H           -4.87712947449514        0.08214444734884       -3.07489551402645
H           -5.84120313282033        0.39136181142978       -1.64035746559047
H           -4.40377846116715        1.37175183416538       -1.96715118571063
