51
 energy: -86.690548877710 gnorm: 0.000827575621 xtb: 6.5.1 (b24c23e)
Si           0.62910148987093       -0.12163862902526        1.14179521397725
O            1.50434049921731       -0.97805401434534        0.08583691195040
C            2.13005072289761       -0.58820682482820       -1.11538906784702
C            3.51595641926483       -0.05751754742175       -0.84582056413759
H            1.52541596302666        0.18481223419476       -1.60001554470331
C            4.23743280668709       -0.49799397058219        0.25459456351414
C            4.08831713998092        0.86377663497443       -1.71328759366953
C            5.51440537905395       -0.01847982370984        0.48707725292139
H            3.78534140735941       -1.20316392780200        0.93497266534988
C            5.36738787207854        1.33709960970823       -1.48294425107025
H            3.52629246358362        1.21348443339415       -2.56836093336403
C            6.08283505415642        0.89680211034743       -0.38186759988193
H            6.06522108960512       -0.36149069049066        1.35006360856994
H            5.80506195227362        2.05555492615042       -2.16088925498141
H            7.07987222773848        1.27059627852060       -0.20083753548537
C            2.20038665065796       -1.82789917816767       -2.02783957324199
C            0.89537633281652       -2.14819431296361       -2.56088384086007
H            2.89324503044690       -1.63014030859023       -2.84973847858666
H            2.57773763685709       -2.66618159057403       -1.43768388198176
C           -0.20233021827124       -2.35774784470411       -2.98864587444316
H           -1.15384583072077       -2.57443312251455       -3.37190243796409
Cl           1.22922720350571        1.62749610280030        2.06244771351769
Cl           1.21891814851088       -1.35985928489161        2.75438619448544
O           -0.06380685116913        0.91362865435630       -0.30868245741106
O           -0.99605032740839       -0.60973293372605        1.41024845839801
C           -2.35992885169982        1.28004202549165       -0.04373476648302
C           -2.55095695249600       -0.11411386426588       -0.31725378253293
C           -1.76702395124746       -2.34387516028405        0.10576834472171
C           -0.77276095773069        3.04982597725206        0.16404928631346
C           -1.76152325489901        3.96390091147518        0.39899931688298
C           -3.39459498573768        2.19078198363091        0.26971764648592
C           -3.09091916685353        3.51685344631928        0.47634923460057
C           -3.41927070398808       -0.63098783852047       -1.30392128203792
C           -3.46575865086284       -1.98773013570769       -1.52936726318251
C           -2.62131350796958       -2.86559660364397       -0.81446746889611
H           -3.87499448808920        4.20939850871610        0.73944411038848
H           -4.11188147095785       -2.37851432811950       -2.29987682461891
H           -2.62382007821777       -3.92261216324608       -1.01573829758472
H           -1.06419043548367       -2.92337911551301        0.68174106682673
N           -1.06459839466268        1.76383632695523       -0.05238925772285
N           -1.77316286948070       -1.02930779285983        0.37438558252375
H            0.27598335177502        3.29550240586206        0.14160639519150
H           -1.51279519400699        4.99808754773285        0.56030405351649
C           -4.79726386442654        1.71646413607328        0.50227979484823
H           -5.46018307965556        2.05349403236610       -0.29267612196434
H           -4.84452478826222        0.63416239260390        0.57002207297559
H           -5.16555304500035        2.13920749876983        1.43529521510536
C           -4.20890433064490        0.27886706137645       -2.19607550453054
H           -4.14557733381547       -0.07745911337880       -3.22225048661737
H           -5.26042973893191        0.27837637736766       -1.91449435516097
H           -3.83492951866819        1.29713850343874       -2.15776740210387
