51
 energy: -86.686003599116 gnorm: 0.000882239896 xtb: 6.5.1 (b24c23e)
Si           0.31554742984937        0.60091849860170       -0.30747851676000
O            1.80238161411998        0.11035474697917        0.20302765405720
C            3.09296662094085        0.40249957588157       -0.25404406847050
C            4.07190774398944       -0.56418375513164        0.36651257100605
H            3.10948141557585        0.29748556015463       -1.34929091415142
C            3.82197380654023       -1.11731629422712        1.61423361263498
C            5.25154250155914       -0.88130985349726       -0.29447510990877
C            4.73750680378319       -1.97910632157031        2.19212273357119
H            2.89942831258081       -0.87247151861751        2.11685457312075
C            6.16846407267528       -1.73854058083479        0.28656293197744
H            5.44751887355876       -0.45565560811005       -1.26862920254409
C            5.91326207190148       -2.28961990111247        1.53138575151344
H            4.53354862933579       -2.40778860162340        3.16266029221892
H            7.08328022679264       -1.98055177139770       -0.23460698793558
H            6.62902052924436       -2.96087757537775        1.98324049734543
C            3.50607357343680        1.84856384400167        0.10397070799728
C            2.86710839127939        2.80695565238950       -0.76935765003131
H            4.59167148619803        1.93937013591012        0.01274338667021
H            3.21946571973243        2.04337355305220        1.14044736818352
C            2.32405835308270        3.56181187791526       -1.52262527285905
H            1.84722214548452        4.23739206587113       -2.16717218838601
Cl           0.68245146889182        0.40548567472440       -2.34220954872215
Cl           0.16430703630480        2.22034941580875        0.98392855736545
O           -0.42801842456730       -0.69147878863460        0.55310882859351
O           -1.41452747501699        0.99692285481613       -0.97892621298140
C           -2.59972847724750       -1.28229205867902       -0.18244955132491
C           -3.06550791201048       -0.02436835334228        0.32777955958092
C           -2.78684489710805        2.34412520774715        0.28414703983051
C           -0.66734840882016       -2.60124220345822       -0.72476283182122
C           -1.43178667108570       -3.54919045107145       -1.32953196586285
C           -3.40891712445510       -2.24186555841541       -0.82669111962475
C           -2.83135362999887       -3.36620976949952       -1.37293181416354
C           -4.10722451514924        0.12890588151856        1.26914882200167
C           -4.48607081146065        1.39299757443066        1.66058613537511
C           -3.83277065323003        2.52433084322986        1.14523653509619
H           -3.44564906714138       -4.08259537143626       -1.89435317480333
H           -5.26445546704162        1.51235866895755        2.39788058321595
H           -4.11917253759017        3.51647848111820        1.44694750645261
H           -2.20029774692501        3.15063074670363       -0.12289861457106
N           -1.23847112012159       -1.54239840932739       -0.12886259529448
N           -2.42828720907066        1.11992211027976       -0.11226911307833
H            0.40847717904087       -2.63148041038965       -0.66401400092532
H           -0.97245530591133       -4.40298757943179       -1.79615551626644
C           -4.87376119293488       -2.00510797321294       -1.03797821970568
H           -5.46437022967448       -2.61344055002732       -0.35515439695565
H           -5.13284216135900       -0.96104435903224       -0.89331566751180
H           -5.14280969286058       -2.29496341054356       -2.05146971931033
C           -4.72665106166910       -1.06174861203702        1.93649403089355
H           -4.75865824153333       -0.89241804820330        3.01119112487514
H           -5.75088208577775       -1.20857836542777        1.59820332283912
H           -4.15634388613446       -1.96500591641577        1.74370484755264
