51
 energy: -86.691983917899 gnorm: 0.000832874693 xtb: 6.5.1 (b24c23e)
Si           0.32520761148770       -1.63339940512949        0.70577053712340
O           -1.19108927056229       -1.71134051687438        0.15189668792335
C           -1.81148247934755       -1.24251690451839       -1.02702313258398
C           -2.77860262761318       -0.14698106918358       -0.65865999854814
H           -1.05072297810240       -0.85557807715302       -1.70887275295238
C           -3.62979469908037       -0.31475026500704        0.42663215528782
C           -2.81897810676030        1.03954290807238       -1.37713666434550
C           -4.51540825354350        0.68656004147708        0.78077656178328
H           -3.57844457289841       -1.22962140675214        0.99711539028993
C           -3.70725795638024        2.04023463667453       -1.02355781839751
H           -2.15068440373311        1.17855805609890       -2.21528080523071
C           -4.55853093039978        1.86466164835818        0.05391078912777
H           -5.17481967731946        0.54703433739138        1.62478912772976
H           -3.73386863585897        2.96008957915055       -1.58968058154533
H           -5.25271233270071        2.64573273395641        0.32793574039155
C           -2.52844191930728       -2.42764573104983       -1.69796468275762
C           -1.55304634400207       -3.38888445342668       -2.16664863019975
H           -3.12737173236530       -2.05886301436898       -2.53502072889876
H           -3.18638197250528       -2.90259932722918       -0.96677330847095
C           -0.69182690748480       -4.13612699468636       -2.52867134503917
H            0.04082795648073       -4.82230567554324       -2.83249878489097
Cl          -0.25269909050508       -2.64630052151881        2.46444424367112
Cl           1.88558994345963       -2.90617730514126        0.28508287982989
O            0.81611116677122       -0.58750684266413       -0.82671900402897
O            0.77203763439251       -0.23999905740501        1.62738946521614
C            2.07780155556462        1.27905011505789       -0.23007811393487
C            0.88803206889326        1.78478251157005        0.39261292527817
C           -0.95770315994825        1.27538329667910        1.84161561652109
C            3.04323805814837       -0.55327871406370       -1.41599584928987
C            4.25182342902840        0.08186716374362       -1.48827031601068
C            3.32775511770220        1.93572128476801       -0.24677900053276
C            4.39522004805999        1.33944091129358       -0.87914694664197
C            0.28899795450119        3.02899008754863        0.10393594645632
C           -0.89240118252421        3.37779075042279        0.71751808002374
C           -1.52745158205062        2.48820018091654        1.61149348788561
H            5.35872873084832        1.82431227094846       -0.87170289917243
H           -1.36630104841031        4.31464522146578        0.47297580574272
H           -2.46485058825837        2.74452817444839        2.07210127128370
H           -1.38131022605906        0.51448748196914        2.47676190654533
N            2.00070334671614        0.03165036448462       -0.81984575137342
N            0.22171647437182        0.95743226728905        1.28471816380392
H            2.85500523455664       -1.53451105371525       -1.81911633419761
H            5.08267165076553       -0.39525493197176       -1.97775069020769
C            3.53844334806769        3.21241532841520        0.50860663469252
H            3.63225286230086        4.05649179899581       -0.17261119489141
H            2.72128634089552        3.40335182589168        1.19751976009477
H            4.46497502311527        3.14513960062236        1.07543004850279
C            0.85611841523966        3.93079932915465       -0.95081306967900
H            0.04825560497525        4.30499191412655       -1.57634470004463
H            1.34634153910587        4.79158950619984       -0.49943648076923
H            1.57104156229366        3.40850094020373       -1.57901864055600
