51
 energy: -86.693933905328 gnorm: 0.000858517728 xtb: 6.5.1 (b24c23e)
Si           0.05371514399098       -1.56417202890313        0.03010386828630
O           -1.17063582117854       -1.03787036124738        0.96748443364651
C           -2.56385554748501       -1.18163235026313        0.82490728005629
C           -3.08541909238762       -0.30800593953218       -0.28683014951845
H           -2.79330973817429       -2.23179287637448        0.61103272145947
C           -2.58961099241388        0.97944363833913       -0.44189709994498
C           -4.05707710851618       -0.77303143157028       -1.16083345272533
C           -3.05121116751634        1.78825028140712       -1.46402854391094
H           -1.82787647670740        1.34119439018843        0.23447763760112
C           -4.52390022058314        0.03932428426525       -2.17848312878734
H           -4.43299154593291       -1.77934555253813       -1.05291754077043
C           -4.02112878885182        1.31996997349109       -2.33357279424488
H           -2.65216407430863        2.78575146837922       -1.58277081793493
H           -5.27510412955088       -0.33257623959021       -2.85942534752557
H           -4.38014128503739        1.95001283119534       -3.13431324423486
C           -3.20882295807941       -0.77380537379847        2.16366587167416
C           -2.66167218216870       -1.55174222172263        3.25431889439665
H           -4.28819480200245       -0.92982100572899        2.09656656769410
H           -3.01551947840579        0.28826720384767        2.34042670242380
C           -2.16069819194406       -2.19523483276132        4.12974373735586
H           -1.74316172648489       -2.77355332189272        4.89872995504940
Cl           1.27007164435752       -3.17358312938242        0.38795819341701
Cl          -1.14091940787766       -2.55590249601698       -1.44925514284366
O            0.50056705537113       -0.42315046200510       -1.18307721507262
O            1.19524344597724       -0.69161848502118        1.18254554441988
C            2.22144680395390        1.08560001461929       -0.53518566209045
C            1.38414995760399        1.54690692585958        0.53471474780629
C            0.12723664558008        0.90168284850045        2.45935346648627
C            2.55519909001399       -0.60701191298637       -2.20383988944894
C            3.80345765736998       -0.14537803362735       -2.48460805340197
C            3.52237117844293        1.56854411627603       -0.79700207811961
C            4.28983443439317        0.97046904117125       -1.77068925973464
C            0.99011346430765        2.88800543590897        0.74178873518702
C            0.20787315909721        3.20271078165632        1.82956152720963
C           -0.21381516599129        2.19917091798003        2.72099578222917
H            5.29491780238199        1.31854064798014       -1.94741590975268
H           -0.11952504409451        4.22022315310554        1.97567054020271
H           -0.82599022946107        2.43734389721458        3.57374236516560
H           -0.20090405083069        0.05850576934198        3.04604619311824
N            1.78115037570769        0.01834890826624       -1.30263033895873
N            0.90089578918329        0.59725390569017        1.41475592338431
H            2.10261681082248       -1.46368202277988       -2.67674567830132
H            4.41657956254322       -0.64367666530167       -3.21486998534100
C            4.13450692739468        2.64451617900174        0.04793344495945
H            4.13611652581385        3.59598281503378       -0.48098239663327
H            3.60258309448735        2.76468812607279        0.98645162157917
H            5.16938230990077        2.38812260103189        0.26361407085107
C            1.30793686260626        3.94924635286762       -0.26752681601960
H            0.40708056370973        4.52044330219688       -0.48456447242989
H            2.04938093349733        4.64529663124448        0.12095281959429
H            1.67733598749359        3.51710930089237       -1.19239262751111
