51
 energy: -86.691505775748 gnorm: 0.000405649841 xtb: 6.5.1 (b24c23e)
Si          -0.54470560368251       -0.32934454044569        0.62427313061554
O           -1.25790948198555        0.77790677945752       -0.31730798932411
C           -2.56035774197538        1.30463392106640       -0.19852092374804
C           -3.59637682114033        0.23935041538120       -0.44639874061579
H           -2.68936415786926        1.70601104077056        0.81478560876373
C           -3.39260979302777       -0.70099321488393       -1.44691922120729
C           -4.74845216716975        0.17913903481087        0.32399538440941
C           -4.32914543675939       -1.69298713971532       -1.67252103433053
H           -2.48293444656110       -0.66184919707517       -2.02751147890214
C           -5.68796094227470       -0.80993224604614        0.09270429880125
H           -4.89932762804959        0.89896437767806        1.11506496983506
C           -5.48010907461649       -1.74696112903399       -0.90501600320109
H           -4.15901786509328       -2.42747532272677       -2.44605372851372
H           -6.57949517039673       -0.85541717520367        0.70067501598470
H           -6.21052302635369       -2.52360779095855       -1.07848381048927
C           -2.69535260275807        2.44006383111489       -1.22757270330645
C           -1.80463990264079        3.53558995879460       -0.91512284895182
H           -3.72940941819539        2.79419034130021       -1.22866127502049
H           -2.45217361072555        2.04376623587173       -2.21622346231024
C           -1.05357448057428        4.42205306494889       -0.62889461684419
H           -0.41295604980816        5.21893803477063       -0.39656207241822
Cl          -1.07131480056031       -2.33384869319099        0.73724580544912
Cl          -1.58892659584576        0.10827187332248        2.46811670574768
O            0.48586529452410       -0.67595704274546       -0.85824510071929
O            0.89226961876494        0.21929978253216        1.40726250425978
C            2.75579618409012       -0.82367731279049       -0.29364322856735
C            2.71465086916017        0.59011997187887       -0.06192685061667
C            1.46344279538242        2.39473539833230        0.90112607889971
C            1.50354602827531       -2.74450376902370       -0.95542112936812
C            2.60184863578257       -3.54876822276418       -0.84063284391338
C            3.89049083633714       -1.64400782890445       -0.10449540598590
C            3.80835495252233       -2.98840961362245       -0.38535204096292
C            3.57779212785749        1.53347873142311       -0.66111654096133
C            3.38210201234224        2.87630661912509       -0.43246144337931
C            2.30316669887488        3.31933766203929        0.36140551062569
H            4.66416237061763       -3.62283912191329       -0.21648333525773
H            4.02298437615497        3.59872308222471       -0.91231786253313
H            2.12868432065151        4.36943795466322        0.51533428320491
H            0.59505686385399        2.63433591614895        1.49280837864098
N            1.58285036019959       -1.43489100085915       -0.69865952928327
N            1.69627053052521        1.08516922852809        0.73403856477942
H            0.52912269033621       -3.09912908758853       -1.24665639719967
H            2.52726803423265       -4.59919104429989       -1.06085451616443
C            5.14421033705085       -1.09697817057779        0.50823849970756
H            5.94328009824797       -1.03622992995141       -0.22846100214542
H            4.97955291616462       -0.11253184504364        0.93479874289210
H            5.47829580784032       -1.76739610224408        1.29777855113213
C            4.63093415683641        1.10936545972170       -1.63959281936814
H            4.61637463860698        1.77991955540980       -2.49630793321926
H            5.62126798928351        1.17135170887476       -1.19185988051305
H            4.46428727354466        0.09516956141911       -1.98821326440716
