45
 energy: -88.789743208397 gnorm: 0.000642225915 xtb: 6.5.1 (b24c23e)
Si           0.54458138058010       -1.05611492108609        0.60374124880833
O            2.15707464102148       -0.87081405542577        0.38203933833974
C            2.86546662960859       -0.49182788271544       -0.78067067593373
C            2.38597306918061        0.85624995197002       -1.25828629971326
H            2.67108132416347       -1.24055314426250       -1.56196153451011
C            2.54887365070442        1.98144186814451       -0.45925948901129
C            1.68273670497546        0.96909192641680       -2.44938517099306
C            2.00407193659421        3.19404911150751       -0.83966978505941
H            3.06891257852637        1.89745335481394        0.48247967589572
C            1.13939564903716        2.18373663175569       -2.83098790015212
H            1.54228361661255        0.09633319297535       -3.07094797862935
C            1.29339668790532        3.29749028909273       -2.02414197138143
H            2.12491273223176        4.05998378987885       -0.20414421073832
H            0.58490234546404        2.25712235692389       -3.75557153932611
H            0.85755191802755        4.24288743456722       -2.31470351241157
C            4.36619030570294       -0.49157786094498       -0.44973298866950
C            4.85489075763052       -1.83988100216301       -0.25617978663884
H            4.52626732893745        0.07955275623635        0.46677250506903
H            4.90986872637445       -0.01570293411915       -1.27081934960162
C            5.23543392063389       -2.96319325117479       -0.10162729162852
H            5.57910594393085       -3.94358802425118        0.04079379551509
Cl           0.75952264163236       -1.66730804650057        2.51219701318724
Cl           0.13428779736380       -2.10556413764073       -1.14561027114431
O            0.14144511358875        0.57547509974582        0.25968532991063
O           -1.39276572673981       -1.21752401109487        1.05956373701146
C           -2.13312920596175        1.32743548886453        0.27026834828050
C           -2.66988309245157        0.16562718806047       -0.33897604420348
C           -2.81895476031961       -2.19439855514631       -0.44745641899032
C           -0.44818196919374        2.33588012932779        1.62021721434852
C           -1.21288689847780        3.42565544182025        1.89174816887319
C           -2.89535138089055        2.50387575235416        0.44633786197886
C           -2.46064698814890        3.53159635678489        1.23057058125323
C           -3.65355539547343        0.22501845019693       -1.35075724052757
C           -4.18222473187113       -0.90829580903116       -1.90148576314455
C           -3.76453700574863       -2.16474471145244       -1.43665257733638
H           -3.87269911753152        2.54339081527341       -0.00505499888328
H           -3.06632034724527        4.40935810381529        1.37976219032075
H           -3.94317058162568        1.19538452634018       -1.71744788990100
H           -4.91283585700460       -0.84682475399374       -2.69109794061743
H           -4.15372216957785       -3.08757718784743       -1.82815400764435
N           -0.84297399329034        1.34446052081997        0.79186523974458
N           -2.28529355983259       -1.08680552381066        0.09383149004274
H           -0.85902758720239        4.17638414252901        2.57547860335862
F            0.76414087720100        2.19031303387905        2.13513269491382
F           -2.41569090904883       -3.33624090143985        0.08179059994585
