45
 energy: -88.791152217489 gnorm: 0.000423015819 xtb: 6.5.1 (b24c23e)
Si           0.26300723807716       -1.59837590405920       -0.33478464903905
O            1.45237444939969       -0.52849888016427       -0.57499742306587
C            2.57209285534818        0.08832800906365        0.02028891202693
C            2.09814407814216        1.23538300744103        0.88234866521660
H            3.14060806634992        0.48726237212108       -0.83367723393747
C            1.20001604288735        1.00992258453006        1.91847024650593
C            2.51334875849428        2.53365420406493        0.61651823247982
C            0.71228993299092        2.07022039936247        2.66130343319321
H            0.87699690258671        0.00391561494966        2.13766404591719
C            2.03532762513186        3.59171306034067        1.36942609294557
H            3.21769992204311        2.71570494462436       -0.18294036431548
C            1.12667154418858        3.36295004652981        2.38814533883740
H            0.01048779100102        1.88445642190954        3.46098996769582
H            2.37063860672185        4.59643380988564        1.15763542278733
H            0.74755755729600        4.18912062086480        2.97151701492187
C            3.49150368976954       -0.86756904335459        0.79554808365738
C            3.94115454755346       -1.93758563388218       -0.06897491549816
H            2.95922716344127       -1.29505982658396        1.64585202982811
H            4.34744471412907       -0.29117952043964        1.15782459130734
C            4.27178724681430       -2.79980494506221       -0.82903124269335
H            4.56873569882384       -3.57469843410427       -1.46999231199345
Cl           0.06722561259348       -3.11211015883252       -1.65307989472539
Cl           0.91656365438132       -2.69242916652590        1.33632977974212
O           -1.01562667230316       -1.09581389478496        0.69442504409451
O           -0.70695932502377       -0.53754006033181       -1.70010369277295
C           -2.41312149970522        0.73690557502604        0.01570576026593
C           -1.39410369623524        1.44410738022150       -0.66802761238072
C            0.38106947231566        1.41633702765694       -2.22719768900487
C           -3.30724336477714       -1.35494715603256        0.71848491238424
C           -4.56019604359424       -0.84887850953486        0.87051705610653
C           -3.67649536336985        1.30702769446098        0.28671177709602
C           -4.73004442771995        0.54675737436099        0.70303502670450
C           -1.21297260226173        2.83862340410392       -0.54993498376978
C           -0.23900497652989        3.49081239680810       -1.25096359396359
C            0.58573710001289        2.76650065181528       -2.12586077645819
H           -3.80738307652546        2.35750361171904        0.08622934138994
H           -5.69757592736055        0.98713192307645        0.87536489979664
H           -1.83269338799445        3.37111713067467        0.15155004374032
H           -0.09213651733297        4.55143137925390       -1.13373862674712
H            1.36148958847660        3.23193049922397       -2.70751533471151
N           -2.24364835068383       -0.59668238401485        0.37338269915405
N           -0.57199747711107        0.76539268357903       -1.54439533136415
H           -5.37596278634763       -1.50042308747506        1.12815979868146
F           -3.04081239917150       -2.63367739368097        0.93409185508818
F            1.10097603507669        0.67739217119571       -3.05490839512329
