45
 energy: -88.786214227810 gnorm: 0.000644419811 xtb: 6.5.1 (b24c23e)
Si          -0.05872157288845       -0.53505650198945        0.95329858688656
O            1.53201392866882       -0.50918936352353        0.58595138221035
C            2.53861596677052        0.46649055457405        0.68301617865515
C            3.68129409668618        0.07677522321339       -0.22498765982055
H            2.12835831545917        1.43337280037741        0.36410513856963
C            3.96185664789953       -1.25955385683158       -0.47272098733274
C            4.49287935533651        1.05676587141446       -0.78216851290050
C            5.03680297868215       -1.61132440959015       -1.26999543174264
H            3.32375205123347       -2.01720619678114       -0.04536060134079
C            5.57039704991749        0.70382479920773       -1.57479926397937
H            4.27794320713170        2.09897313648039       -0.59064854627779
C            5.84492787091508       -0.63147909427423       -1.82030047033240
H            5.24525897541268       -2.65419381932996       -1.45980447939598
H            6.19634777295607        1.47270334764043       -2.00424154675505
H            6.68576153859304       -0.90618514020452       -2.44050827416360
C            3.06488164539422        0.59725795060673        2.13365018591330
C            2.38358412970200        1.63829451025028        2.86958209469960
H            4.13457436001959        0.82426014745613        2.10557972539657
H            2.92403492393148       -0.36299975119607        2.63458019793027
C            1.83628855366909        2.53414098347564        3.44304755667595
H            1.34213383401285        3.29719878263838        3.96503148946748
Cl          -0.29820406235472       -2.25600897162767       -0.13424128272437
Cl          -0.08292518221404       -0.41334916224889        2.97532833319311
O           -2.08783646800353       -0.56455988931389        1.25400331405507
O           -0.42142128908240        0.84183114216417        0.00724041484235
C           -3.14698526197215        0.04667800499238       -0.72873255926002
C           -2.69899389430973        1.38348813147927       -0.56882901110736
C           -1.22685666912445        2.95330293233702        0.45387001315019
C           -3.29488094887786       -2.15287379332336        0.12609602778030
C           -4.09013572109182       -2.57782986477512       -0.90558941960175
C           -3.97389707649354       -0.35947872362748       -1.79743577425871
C           -4.42556709073341       -1.64648859821790       -1.89788702532051
C           -3.49601382512848        2.48049716649080       -0.96249810297308
C           -3.19365310453325        3.76080246936152       -0.60224165669660
C           -2.03887252839367        4.00692176249562        0.18202670762219
H           -4.20122436142979        0.36035566468718       -2.56577276639738
H           -5.03427845961939       -1.95104032273261       -2.73332089578574
H           -4.40342182709445        2.27018344994845       -1.50440307109616
H           -3.83133504853349        4.58230483457260       -0.88107205973864
H           -1.78598322656594        4.98846329833493        0.54128338422298
N           -2.83666052620298       -0.89528350237483        0.22700333734016
N           -1.49163171156125        1.68565721955662        0.06229232768191
H           -4.42698565316901       -3.59871513383657       -0.93003197098831
F           -2.99103372039376       -2.95314761023754        1.13305249902842
F           -0.07939397261493        3.11078652229018        1.10137247467586
