45
 energy: -88.786779093390 gnorm: 0.000988403822 xtb: 6.5.1 (b24c23e)
Si           0.07477313829511       -0.33125414085320        0.17598413438548
O            1.63776760281134       -0.63197243166508       -0.11923858482018
C            2.77551276055715       -0.67376279088391        0.70081526637282
C            3.98597307186621       -0.20723177282496       -0.06454649640552
H            2.61881860588996       -0.03665838907032        1.57933349021145
C            4.05882219686192       -0.37287953278845       -1.44045067671899
C            5.06123970788571        0.35241499805044        0.61346551586926
C            5.19131394682400        0.02186513998966       -2.13053583647958
H            3.21645817935011       -0.80063832472656       -1.96173146194279
C            6.19586402344738        0.73886311198271       -0.07696772123723
H            5.00446158360728        0.48794881216697        1.68426178640635
C            6.26300190586655        0.57441211795483       -1.45044453644902
H            5.23827405386017       -0.10549563364568       -3.20226157988664
H            7.02846776965434        1.17254253072533        0.45767111174213
H            7.14855200125744        0.87891712364557       -1.98898393856612
C            2.99064496734935       -2.13293478783864        1.16515839523567
C            1.81268100000664       -2.62538771319136        1.84367656711278
H            3.85923740642873       -2.17383903553787        1.82523735035521
H            3.18054171993724       -2.75141704835595        0.28359187409021
C            0.78570345720284       -2.97882092262793        2.34715397404769
H           -0.09499191724623       -3.31272832457618        2.80822704641432
Cl           0.33861441957912        0.61871231102657        2.06983899762624
Cl          -0.36918147465907       -1.64930490028027       -1.46004698271883
O           -0.42309148738537        1.03983211064343       -0.74022569628512
O           -1.53119734033389       -0.64867501667708        0.87401079073240
C           -2.70072035315095        1.58417386002996       -0.29590446845940
C           -3.18791757443121        0.26362855123089       -0.51394721010554
C           -3.03035663018526       -2.08194917009601       -0.15043702004601
C           -0.92652858693552        3.12117458744135        0.11460289946999
C           -1.77870447086367        4.14952492025859        0.38712708986226
C           -3.59501731798335        2.65999248042271       -0.10440490590727
C           -3.16161305729707        3.90857779372499        0.23881640295544
C           -4.35342281172133        0.01448612196495       -1.26889893803799
C           -4.81137342191562       -1.25580873513380       -1.48059585844769
C           -4.13454208184601       -2.34918938921743       -0.90748046745996
H           -4.65000244763415        2.44993145371349       -0.16734581518513
H           -3.86265347447845        4.70627947698082        0.41807013282450
H           -4.84218904759671        0.85407060904686       -1.73474961960624
H           -5.68117603909846       -1.43093882477843       -2.09174253242451
H           -4.45272416031505       -3.36625685311844       -1.05031667298622
N           -1.34868273602543        1.89693753152948       -0.25686889843057
N           -2.58584358447606       -0.83350680037906        0.06652044043770
H           -1.38728133996439        5.10468820986420        0.68811843712662
F            0.38374977366852        3.28245692213050        0.13805325501020
F           -2.37929793666265       -3.03246023625907        0.49289796031690
