45
 energy: -88.797661814184 gnorm: 0.000765841825 xtb: 6.5.1 (b24c23e)
Si           0.25380001331768       -0.93730013248401       -0.10920129037609
O            0.99524387723151        0.45847952082595        0.28405004957180
C            2.16085607948067        0.66231070615847        1.05249202914685
C            3.37429340377289        0.08197497441723        0.37477158841039
H            2.02298647720497        0.18571298780563        2.03019381236006
C            3.51915151158145        0.19264705872451       -1.00123378122477
C            4.35132323868979       -0.56758289624807        1.11533245500338
C            4.62547252896107       -0.34799500100127       -1.63091927765790
H            2.75239647707988        0.68533167007021       -1.57962423656537
C            5.46156209151278       -1.09979633582228        0.48486019888696
H            4.23198262687813       -0.66882154689466        2.18399796895256
C            5.59996153531725       -0.99227915874995       -0.88866121106582
H            4.72360879125211       -0.26861540799407       -2.70333233918443
H            6.21547412910128       -1.60937147879458        1.06650980338641
H            6.46302717858963       -1.41658250518315       -1.38055303486963
C            2.32341576190827        2.18266916069475        1.23613187711704
C            1.15590858036520        2.74553996700366        1.87782196534396
H            2.46194105232575        2.64357657526204        0.25449537554710
H            3.21140453316707        2.37176730648471        1.84367402465526
C            0.15373788068442        3.16461711076728        2.38001833823187
H           -0.70267071664276        3.55062581128028        2.84609698628630
Cl           0.70586608666046       -2.06582795065661       -1.73828611762951
Cl           1.12180239754239       -2.18104186368034        1.36068974382120
O           -1.22790385759544       -1.14577620012785        0.73559490948774
O           -0.75381753846864        0.10728243846557       -1.34510871908268
C           -3.12757273258707        0.13646513552385        0.01915087669925
C           -2.39951834186152        1.32856872597886       -0.21467814923622
C           -0.50049837610868        2.38923186032654       -1.14232500828723
C           -3.16324821331337       -2.24161415013149        0.13166945887136
C           -4.51608674139228       -2.30023305581826       -0.00008649153008
C           -4.54002949668090        0.10050772175567       -0.00511868612784
C           -5.22747103862623       -1.07766614477487       -0.01352504163229
C           -2.87497117662923        2.60598881846012        0.15633116738750
C           -2.15556090036837        3.73672749243643       -0.10575060248318
C           -0.92493322020559        3.63676789320635       -0.77600717417747
H           -5.06602389714988        1.03764355945319       -0.08587828251645
H           -6.30332471936954       -1.09067257085492       -0.06117622607477
H           -3.80390652547459        2.66106183374029        0.69889798932573
H           -2.51624583003423        4.70420894340410        0.20188456130724
H           -0.31903716509723        4.49584135482490       -1.00158570638086
N           -2.48077973059921       -1.07934002454819        0.21289992190763
N           -1.20167316371175        1.27383653935294       -0.89611220517613
H           -5.00816849676174       -3.25348835986388       -0.07166772396480
F           -2.42588955140113       -3.33529856946629        0.22617080555706
F            0.62264717745454        2.22299518667148       -1.82189460202061
