45
 energy: -88.791302384733 gnorm: 0.000555192374 xtb: 6.5.1 (b24c23e)
Si           0.19566371134935       -0.49391613972872        1.13565386251370
O            0.99127043714068       -1.53671082208653        0.21993415307607
C            1.67107918439059       -1.41588511569444       -1.01460987213958
C            2.92937136390742       -0.60622897048509       -0.84477036444220
H            1.00632224196776       -0.92150764279036       -1.72881010117582
C            3.70760723156971       -0.76344894065855        0.29433063987822
C            3.31492018048148        0.30949061540790       -1.81318684249709
C            4.85396111517439       -0.00879785602689        0.46512785743631
H            3.39832131328129       -1.46464570930479        1.05542575515097
C            4.46448778744988        1.05999202241920       -1.64369820516447
H            2.70546574584952        0.44156134625348       -2.69533044635369
C            5.23499532103714        0.90315458741644       -0.50426652247920
H            5.44837361255638       -0.13120555905546        1.35841413150687
H            4.75424281988036        1.77587114137939       -2.39872943948622
H            6.12838031884477        1.49491372765827       -0.36948453379496
C            1.98368083653024       -2.84093576052746       -1.50045438488603
C            0.76201544090056       -3.54321288208268       -1.82966996526286
H            2.50896011227687       -3.37515986409293       -0.70541542711722
H            2.62957906882205       -2.78360424532512       -2.38047884776421
C           -0.27744121515962       -4.07347502578330       -2.09354099452342
H           -1.17168440319331       -4.57264053605456       -2.31922463727998
Cl           0.92143186072127        1.31720686869786        1.72055638912100
Cl           0.34880294093771       -1.53186649279957        2.89587570958715
O           -0.26141325123236        0.53402609689221       -0.76884914064433
O           -1.49107994245767       -0.51630753097778        1.18887434534801
C           -2.23945925011642        1.72174844631081       -0.47392690489126
C           -2.95973241250514        0.50104265518697       -0.40531752617653
C           -2.90456779300898       -1.85950864612517       -0.06700695123247
C           -0.16885408284822        2.81992571854435       -0.76024173138061
C           -0.73997672912455        4.06470877856098       -0.70018382434377
C           -2.85877539799278        2.98704768615447       -0.43361330055944
C           -2.12789943248476        4.14006192744678       -0.52726110163481
C           -4.24784336497749        0.34144586626231       -0.95410558538047
C           -4.81273154802180       -0.89217725611054       -1.10446171474251
C           -4.09018579203868       -2.04422799106007       -0.70262739239768
H           -3.92416801310088        3.02384177705521       -0.27966477124762
H           -2.60854342521391        5.10253048418080       -0.46945504628728
H           -4.75310825642143        1.22093777759709       -1.31788593332304
H           -5.78530846050141       -1.00660500582375       -1.55123863126335
H           -4.46349267832614       -3.03929715709330       -0.86675958067688
N           -0.87129549840254        1.68093258397087       -0.65173188879783
N           -2.37023573793819       -0.63580775650815        0.14607100438304
H           -0.11770385141800        4.93710755494611       -0.79132381852717
F            1.12537211188789        2.67075154535187       -1.00742100641942
F           -2.20471322047419       -2.87512730149834        0.41724958629364
