45
 energy: -88.793569632654 gnorm: 0.000877279957 xtb: 6.5.1 (b24c23e)
Si          -0.61831193361468       -1.38096387982084       -0.20294098981740
O            0.88680471286785       -0.80445487429137       -0.44890589713302
C            2.14152223066429       -1.39826548436846       -0.21873777335090
C            3.03748339489766       -0.47224228987395        0.56565338517702
H            1.99954472878982       -2.32526999263185        0.35046630425646
C            2.76484752778710        0.88234134206435        0.68479772472574
C            4.18024249121650       -0.98498992912085        1.17049593646977
C            3.61859649299358        1.71375019136025        1.38922383686275
H            1.87151920503684        1.28610316666471        0.23383568590195
C            5.03526789880219       -0.15474148995515        1.87047990317194
H            4.39110198744199       -2.04244819552034        1.09868389388203
C            4.75824823941773        1.19887590237528        1.98017978803203
H            3.38877909902544        2.76687064369585        1.47643513733352
H            5.91873282157610       -0.56486951862219        2.33751914210861
H            5.42542431246413        1.84659534958876        2.52949214036587
C            2.78668778424617       -1.74338347545084       -1.57728828458005
C            1.98693870403176       -2.72854872660846       -2.27323963536965
H            3.79352507765900       -2.13081410274534       -1.40541898982741
H            2.85421457690121       -0.83515195840439       -2.18191469351447
C            1.27727857713551       -3.53260719740059       -2.80293906654617
H            0.66065743663141       -4.23531067949614       -3.27775617538174
Cl          -1.69535110724293       -2.58809697055301       -1.43280995131514
Cl          -0.17150052843678       -2.82829609714074        1.26946819497139
O           -1.38465516547804       -0.48561672351446        1.05052268905524
O           -1.21950385836919       -0.01026240389132       -1.37399534938977
C           -2.20159580899124        1.70991069204103        0.52430810699730
C           -1.10968993634291        2.06957519875399       -0.30299854470490
C            0.37366752089515        1.50351372675878       -2.06061939779777
C           -3.59905345219594        0.01357963192550        1.44008391090319
C           -4.59524276607318        0.89200882147192        1.73628300107250
C           -3.17496407745245        2.65144564885711        0.92945035134482
C           -4.34277570123969        2.26673007795844        1.52001915600350
C           -0.50280398940350        3.34547522399379       -0.26458525511016
C            0.53002890908316        3.66906175429464       -1.09781519518788
C            0.99165008946463        2.72495911659194       -2.03200057319765
H           -3.00069536464669        3.68847595255637        0.69531688398531
H           -5.08867351934081        2.99275292491455        1.79634122051052
H           -0.84471325443155        4.04601799813112        0.47863322630617
H            1.00122475923902        4.63638304117466       -1.04154128010254
H            1.80112855903020        2.93001203431195       -2.70979885049782
N           -2.41198093093852        0.39380595251085        0.92007777636649
N           -0.64109411970785        1.17698947096069       -1.24649227764951
H           -5.52631085128554        0.53385857662910        2.13772832175016
F           -3.71907883039674       -1.28104886877996        1.68012444449333
F            0.72513705827538        0.57993041863992       -2.93822898159614
