45
 energy: -88.791671744661 gnorm: 0.000364174461 xtb: 6.5.1 (b24c23e)
Si          -0.27949316559108       -0.13555958177463        0.55328922797187
O           -1.13152584549226        0.56899276134190       -0.61898119205600
C           -2.40064794060788        1.18055583559044       -0.56286359610859
C           -3.49728634219293        0.15637214561726       -0.42647731522165
H           -2.43162909710134        1.86428248748498        0.29438889207057
C           -3.36974615040254       -1.08634914535487       -1.03102793534394
C           -4.64599555090870        0.45095063558999        0.29480993168425
C           -4.37741493088025       -2.02650033015125       -0.91063729199295
H           -2.46859252613666       -1.31780386203100       -1.57905289850042
C           -5.65606617376727       -0.48732959160744        0.40767684595275
H           -4.74056446234847        1.41250286087122        0.77792168551728
C           -5.52358343890921       -1.72740300246583       -0.19428439592425
H           -4.26566624057233       -2.99475240166133       -1.37594982344748
H           -6.54518602056365       -0.25323209953219        0.97462023701462
H           -6.31030053146891       -2.46156850334035       -0.09944956179343
C           -2.56871727786883        1.98077763709231       -1.86710263488364
C           -1.58760954415348        3.04071845170244       -1.94946571618264
H           -3.57608742016930        2.40306838241098       -1.89897133813979
H           -2.43926810898229        1.29832873225177       -2.71054522948968
C           -0.75635233371185        3.90053940188232       -1.98342298410820
H           -0.04324576254344        4.66775724801085       -2.03047290024895
Cl          -0.30001483486594       -2.12764097669894        1.12264588041151
Cl          -1.38471927812376        0.49456393581425        2.25311654587969
O            0.84364582095246       -0.57295457445541       -0.90107619207689
O            1.06561267400994        0.70217289880931        1.21691820144445
C            3.07443737433724       -0.78490160431890       -0.20884947708553
C            3.14052903645355        0.60942972097362        0.03391036623975
C            1.99411020791613        2.65983901390418        0.42136111001223
C            1.83636238721895       -2.64830365408171       -0.98816741809124
C            2.89209881604274       -3.50499474135138       -0.83347386336139
C            4.18615758083739       -1.64291840587737       -0.06106035818364
C            4.09839275355238       -2.97670997484630       -0.34277731490756
C            4.30097267050583        1.36929701041282       -0.23455058223237
C            4.27760781739288        2.73349863496257       -0.23035315851314
C            3.06824371276742        3.41096224471094        0.05345011380040
H            5.09785070523026       -1.22437756401139        0.33132542907367
H            4.94471624911663       -3.62726031632419       -0.19652182518125
H            5.19637426991851        0.84000844240349       -0.51558386486231
H            5.16007937033429        3.30281437485868       -0.46946237830374
H            2.98661691754498        4.48231950790883        0.00956841412038
N            1.90383678593930       -1.34153484559737       -0.68489084109851
N            2.03152069213045        1.31354670399179        0.48469825480227
H            2.77751503451149       -4.54255196573234       -1.09156715429411
F            0.70110338137019       -3.05054918092798       -1.53091076525196
F            0.84921071928521        3.21234225353775        0.78599287088739
