45
 energy: -88.791684902696 gnorm: 0.000578600100 xtb: 6.5.1 (b24c23e)
Si           0.41692929638707        0.13148450527689        0.55956998816930
O            1.18019190126683       -0.54442413508466       -0.68870342034982
C            2.31649167692516       -1.37833101085757       -0.69809722240179
C            3.57027093151070       -0.60079025807365       -0.39065480408273
H            2.18649037436325       -2.16977020793196        0.05041656400514
C            3.68057663067835        0.72927559675281       -0.77082948455715
C            4.62890709292601       -1.21422447217608        0.26506755165740
C            4.83349597912942        1.44077159579006       -0.49028464148167
H            2.85143116937705        1.20783542958167       -1.27001491095945
C            5.78442476996908       -0.50417975576195        0.53663626402513
H            4.53930232644331       -2.24588831491880        0.57289596769047
C            5.88835645725123        0.82464023987949        0.16059896680491
H            4.90640792676058        2.47868893613277       -0.77992318075299
H            6.60263261937575       -0.98689262186749        1.05066444964909
H            6.78862839607130        1.37991867815933        0.37956885001654
C            2.40327689117169       -2.00505975987879       -2.10144929420411
C            1.26576179379845       -2.86209180376104       -2.35485326960991
H            3.32769658967118       -2.58316832104582       -2.17611874058045
H            2.42446158514237       -1.19925802577092       -2.83912172925953
C            0.31053592922359       -3.56050313503252       -2.53122774797336
H           -0.51305170110574       -4.18916442226070       -2.69311697003049
Cl           0.81297173052918        1.95040282851972        1.47077601176111
Cl           1.24247218457439       -0.99564202565978        2.15771553744645
O           -0.48281799780840        1.03707772730164       -0.83366916029439
O           -1.11877326024150       -0.48304794153543        1.02240112053562
C           -2.66185021748329        1.62126141217974       -0.19309582328248
C           -3.03795860591117        0.25534308524049       -0.19690402587241
C           -2.38235065254221       -2.03262870454051       -0.12949451019270
C           -1.00324251962311        3.26601726669475       -0.58980809523885
C           -1.86172743305992        4.29840826913850       -0.32632551585109
C           -3.57489656163636        2.66863213289936        0.05915830161486
C           -3.18594075389366        3.97747359678887        0.01786303450887
C           -4.31042927089377       -0.17674603109965       -0.63349607621642
C           -4.57610158097111       -1.49467254588653       -0.86517521734459
C           -3.56123150932719       -2.45901875496178       -0.66006247627059
H           -4.58150694710199        2.40470059113068        0.33729381436847
H           -3.88427594344520        4.76665496923980        0.24232278911233
H           -5.05115969196719        0.57516875493432       -0.84951607338211
H           -5.53913564216484       -1.80917696158955       -1.23057639879983
H           -3.70498333603841       -3.50043703878927       -0.88592496389268
N           -1.36863956809202        1.97528746661053       -0.52301494297665
N           -2.13829113609800       -0.73941668806140        0.16363590247575
H           -1.51062076664480        5.31254234415493       -0.39340290263154
F            0.22830540968687        3.48961597203581       -1.01265475242901
F           -1.41015856618255       -2.87552946189726        0.17551923707494
