45
 energy: -88.793486532690 gnorm: 0.000806982243 xtb: 6.5.1 (b24c23e)
Si           0.53619046606757       -1.28457563662377        0.34115906078832
O           -0.96899237742420       -0.67614743760201        0.48228765317537
C           -2.22009429163380       -1.29307403385493        0.29395752985536
C           -3.12965795995446       -0.42441961664945       -0.53798114352513
H           -2.07225108878766       -2.25137015308547       -0.21907031241461
C           -2.89606806801340        0.93170226810735       -0.70620063707712
C           -4.25085402778768       -0.99330764144238       -1.13249716406782
C           -3.76876768366150        1.71056824677706       -1.44652465497163
H           -2.01887139710503        1.37759643036432       -0.26440301652417
C           -5.12454089555852       -0.21579656937896       -1.86887046710330
H           -4.43012748957788       -2.05295486349345       -1.02192139961124
C           -4.88812449185121        1.14052966349861       -2.02524169827294
H           -3.57131508914681        2.76607762909913       -1.56945144868742
H           -5.99099321578778       -0.66922715257875       -2.32725359355350
H           -5.57087319555124        1.74754788405669       -2.60119193957984
C           -2.85774200032548       -1.56241878015262        1.67339947048017
C           -2.08665733893245       -2.55183406790517        2.39482252929907
H           -3.88165095052661       -1.91578617516043        1.53037833469243
H           -2.87965322079353       -0.62985622500474        2.24297821541090
C           -1.39946696137384       -3.36586897798530        2.93866538889174
H           -0.81021002807374       -4.08090330670432        3.42944512326068
Cl           1.57793780418100       -2.37144501079176        1.70744676110172
Cl           0.11925988380845       -2.86245213785318       -0.99978347692791
O            1.35390421854015       -0.50715066111321       -0.96207295375097
O            1.11611627148080        0.18693832529650        1.40175907830695
C            2.25473695099721        1.68166506472697       -0.59164472555534
C            1.13612331807417        2.15712223600278        0.13524728654989
C           -0.45572529846755        1.80939446294839        1.85317080204707
C            3.61419565334864       -0.15459906076589       -1.25940605287191
C            4.67100909459420        0.64705104501040       -1.56476451546434
C            3.29573753054123        2.53746554809763       -1.01643836727903
C            4.47655879083588        2.04599421076841       -1.49104041966567
C            0.58350986989458        3.44361553792872       -0.05388455098406
C           -0.47812239117104        3.87901719560280        0.68713356269995
C           -1.02345633020763        3.04312825083983        1.67771250551101
H            3.15973610841183        3.59859804091210       -0.88870135251994
H            5.27485691977021        2.70803020431842       -1.78139835892205
H            0.99272769319169        4.05886792715343       -0.83758808349882
H           -0.90843417522699        4.85183690004953        0.51593659198719
H           -1.85871921687291        3.33795618981475        2.28779681419906
N            2.41925626351532        0.32705830129244       -0.85704718148642
N            0.58454449151871        1.37179499975703        1.12879562707301
H            5.60609885102321        0.21095492220093       -1.86755623878316
F            3.68168577944813       -1.46978169364269       -1.37589077076346
F           -0.88828977540628        0.98619271715168        2.79283618849539
