45
 energy: -88.445372191194 gnorm: 0.000694524827 xtb: 6.5.1 (b24c23e)
Si           0.36381735479070       -0.58354653030671       -0.42494560125311
O            1.14821549011665        0.76942649087411        0.02097859088512
C            2.28403714726406        1.02090272121034        0.82521320834633
C            3.47332987395675        0.20916793278449        0.36391949757823
H            2.50032535345787        2.08670489329523        0.64031032996484
C            4.31051685720473       -0.48383142817249        1.22589304782256
C            3.72588850273416        0.15939950097367       -1.00260944219419
C            5.36718682764307       -1.22481156260462        0.72507614370368
H            4.14093285452286       -0.47062499223740        2.29046122404048
C            4.77497816913138       -0.58757846527741       -1.50240804445130
H            3.07784241701957        0.69678850475477       -1.67918660918483
C            5.59991192180644       -1.28476993704248       -0.63695518689279
H            6.00421052916233       -1.76871707583198        1.40694779145167
H            4.94404565112251       -0.62784527325535       -2.56813073983633
H            6.41705760684811       -1.87565597511543       -1.02331772213040
C            1.92005705771410        0.85376609493624        2.30746215148127
C            0.73101410503763        1.62073633147669        2.60914898810683
H            2.74658522338587        1.20723396143277        2.92766598524784
H            1.72772941503069       -0.20163371540027        2.51140731367980
C           -0.26557364959826        2.25639154054281        2.79584512484895
H           -1.13033805360233        2.81098218984964        3.00581120507262
Cl           0.64413275361286       -1.48448139814303       -2.23790287638632
Cl           1.43605025935900       -2.03882431089486        0.70693610048086
O           -0.98760991594499       -0.96183627977959        0.56730173197756
O           -0.79602535969733        0.54306168574627       -1.38622296216845
C           -3.02568952839761        0.20200308187568        0.16459939766404
C           -2.40577871845219        1.46951676529977        0.03101933815955
C           -0.68746860179804        2.80796957460309       -0.92536799087755
C           -2.86698549084933       -2.18197596129449       -0.01411650770657
C           -4.22749573709421       -2.31198899280251       -0.05630961461081
C           -4.42839785177527        0.06135200732864        0.23760170064688
C           -5.02453747390581       -1.16236126427462        0.13409558534340
C           -2.94593806115221        2.63859115466014        0.60940506860808
C           -2.34320914809461        3.85305185914854        0.44328454635712
C           -1.18234615229236        3.94833560015786       -0.34071603920668
H           -5.02524003982979        0.95597582135077        0.30172693196148
H           -6.09730032661709       -1.25839654380328        0.15853186805626
H           -3.82076504731638        2.53768314089822        1.23018397581255
H           -2.74472162136753        4.73805527033112        0.90989884004088
H           -0.68445363011474        4.88759038211580       -0.50206239500574
N           -2.28507141447773       -0.97210688853049        0.17192189211472
N           -1.27556126501952        1.61058258321503       -0.74844581960768
H           -4.66637928420651       -3.28005998412018       -0.21681943873207
Cl           0.65410554306497        2.85436734295511       -1.96514304937733
Cl          -1.81339854238355       -3.51528885293007       -0.15125553983097
