45
 energy: -88.442780055348 gnorm: 0.000524557744 xtb: 6.5.1 (b24c23e)
Si          -0.12393983272685       -0.98212962481470        0.24086724695373
O            1.24197020298161       -1.60553474524720       -0.41585295880017
C            2.56758006216215       -1.59153750024598        0.04427208066839
C            3.29877318607089       -0.34608550271836       -0.38863237176762
H            2.56444911325486       -1.64994602689137        1.14174489401368
C            2.91910667709367        0.33453792642706       -1.53621672925677
C            4.37138199076108        0.12475027498792        0.35883812713636
C            3.58550925501322        1.48556330923333       -1.91772594071753
H            2.08415005863762       -0.03481269718833       -2.11098218316969
C            5.04441405213124        1.26898302363959       -0.02970722999093
H            4.66866511857831       -0.40229683928361        1.25494394052826
C            4.64838225784978        1.95555658265701       -1.16566231264840
H            3.27440836146209        2.01671686340909       -2.80568554972555
H            5.87364391463612        1.63137502515393        0.56046690426674
H            5.16717186265824        2.85547158306349       -1.46197998960909
C            3.27601325190001       -2.83969872490392       -0.52009851117190
C            2.70053326991652       -4.04438491152623        0.03673475575217
H            4.34069220461501       -2.78869200323041       -0.27797198771009
H            3.15538190432596       -2.84386230327032       -1.60605831632673
C            2.18910546422513       -5.00823084443215        0.52710978965535
H            1.75569084100285       -5.86813453818446        0.94179416405792
Cl           0.24113713083768       -1.33890889833673        2.22949333282102
Cl          -1.19881520109109       -1.94101967804789       -1.24639553059154
O            0.18797633508679        0.62835912956075       -0.25657380332315
O           -1.78984945860839       -0.31278441108207        0.96022495779690
C           -1.61320071351674        2.20181335184678       -0.15490722718275
C           -2.64946279876917        1.29424760044597       -0.49840148166425
C           -3.76996952497059       -0.77096700896532       -0.11918998781020
C            0.50444047911708        2.61487169121338        0.88792073808665
C            0.22617609868685        3.94299411064482        1.03298543542986
C           -1.84997475920791        3.59288049679271       -0.11544383278044
C           -0.95698272829163        4.45373196835601        0.45399133208462
C           -3.67431649808972        1.63797757994021       -1.40621761666675
C           -4.70973958723477        0.78406809338844       -1.66447253995353
C           -4.77633532050320       -0.44567053120148       -0.99592622010652
H           -2.79614476763302        3.95588641364378       -0.48042851684062
H           -1.16160952802584        5.50974880393357        0.50560591123481
H           -3.59480705764194        2.57459818256707       -1.93157898469739
H           -5.47298011781881        1.04613884188572       -2.37869572178254
H           -5.58324742300805       -1.13724304372039       -1.15777087914849
N           -0.34457432651896        1.78064233070413        0.23564834301381
N           -2.73916327270225        0.06435993185005        0.11521458631954
H            0.90885118126535        4.57664694009361        1.56963023196486
Cl          -3.78481298951622       -2.21767403526553        0.76651005523251
Cl           1.94448163159831        1.91838581312595        1.48283559642659
