45
 energy: -88.446394360362 gnorm: 0.000864362787 xtb: 6.5.1 (b24c23e)
Si           0.50901228119584       -1.24080407022268        0.53767039156580
O           -1.02958564301559       -0.72007248063029        0.65714067663029
C           -2.24974081132199       -1.38177008906230        0.40689811840317
C           -2.97354449581825       -0.71259970468742       -0.73291693186176
H           -2.04600350763442       -2.42685272658390        0.14997018694642
C           -2.96915065948888        0.67064614686109       -0.85050096062464
C           -3.66591970152135       -1.47119522434560       -1.66711510253490
C           -3.64062240205285        1.28780622411769       -1.89057587235210
H           -2.42899076218000        1.26270312868491       -0.12663178557247
C           -4.34628110477868       -0.85294136916086       -2.70112133472454
H           -3.66306924293321       -2.54814739782660       -1.58537084150772
C           -4.33387705711864        0.52712602353446       -2.81636695822042
H           -3.62409392969127        2.36513726883665       -1.97508312450675
H           -4.88241082996102       -1.45051104103446       -3.42364792266126
H           -4.86071785376263        1.00800325280848       -3.62747711814673
C           -3.10917459661684       -1.34104751815832        1.68610199262542
C           -2.39343205974492       -1.95902152001519        2.78203515591223
H           -4.04374552950434       -1.87509720176088        1.49772112744554
H           -3.34058452828117       -0.30078654885030        1.93308696866942
C           -1.73671339627178       -2.45967630358834        3.64795040345004
H           -1.17213090097388       -2.90170912416825        4.41330381496244
Cl           1.53660840405126       -2.15922835753495        2.04339590031927
Cl           0.17129299954701       -2.99660550198535       -0.61421245099277
O            1.27952395878281       -0.61957590016688       -0.86646272987340
O            1.03466545126250        0.33310900605156        1.40384845950721
C            1.97932342532776        1.66254312880958       -0.80184635362683
C            0.85539248927070        2.13291067549421       -0.07660693404795
C           -0.58733547643151        1.92176888825394        1.80904001394420
C            3.49429341413080       -0.12502504059101       -1.30351242599300
C            4.44121417069255        0.74752452415388       -1.76216681559387
C            2.90605587685551        2.55348379963508       -1.38613887989499
C            4.10844925594713        2.11610582442118       -1.86200231647514
C            0.19332675523391        3.33716186576854       -0.40293675428166
C           -0.84432414860373        3.80177707634094        0.35446633175600
C           -1.24558061766775        3.08794458208568        1.49572802986827
H            2.67235433779989        3.60509892583970       -1.37825384064522
H            4.82269794069401        2.80741707564371       -2.27704632173610
H            0.49790590097194        3.85778533668778       -1.29520497112165
H           -1.36128690673691        4.70789964055210        0.08380317265762
H           -2.04636182418861        3.43128841599666        2.12581345080468
N            2.26947075470257        0.30867461154868       -0.91527194194782
N            0.41847047031521        1.45694205492102        1.04414228430505
H            5.40933705530814        0.38136693214544       -2.05245388643348
Cl          -0.96275094847023        1.01087716794717        3.19797080518598
Cl           3.75824199268025       -1.80789445676645       -1.22048670956966
