45
 energy: -88.446736860638 gnorm: 0.000947812039 xtb: 6.5.1 (b24c23e)
Si          -0.04566504297379       -1.23677615019557       -0.69772161316868
O            1.40840615473514       -0.60823729667277       -0.31616787636457
C            2.36642370053709       -1.02952638227181        0.63387469073418
C            2.00857247949137       -0.44726903152127        1.97776165951111
H            2.35708289215594       -2.12324213675979        0.69039544310258
C            1.76931300497506        0.91601012325661        2.09535081021011
C            1.86091545437384       -1.26111630274837        3.09150030219590
C            1.38799483693543        1.45919898892129        3.30838273466757
H            1.87220081061773        1.55334994851746        1.22865750049531
C            1.48713114568515       -0.71563389267852        4.30737655124400
H            2.02343843545138       -2.32421908689982        2.99918706038881
C            1.24879571075584        0.64367931977781        4.41851644670533
H            1.19937567848675        2.52075361800327        3.38525449834482
H            1.37180103024119       -1.35637020857574        5.16891173388074
H            0.95016388852391        1.06659436199039        5.36659897683586
C            3.75207607688265       -0.56019338389534        0.16010673439648
C            4.05846282477776       -1.13190329157912       -1.13423446337949
H            4.49763740379683       -0.87662274832630        0.89396251944842
H            3.76531435375871        0.53108237508816        0.09076910449457
C            4.24515609873740       -1.61049172458528       -2.21482103469878
H            4.43443161101253       -2.03684682729339       -3.15432317174940
Cl          -0.41889360487262       -2.22300715910098       -2.44457271439702
Cl           0.01721355553254       -2.97065088800279        0.53209442232674
O           -1.30489217535233       -0.69902225426506        0.34247244226224
O           -0.35037886744785        0.29752301511838       -1.71627957145094
C           -2.13107173695737        1.51096981665858       -0.01555388786666
C           -0.86550940881847        2.08414790096364       -0.29901116924473
C            1.18317374643586        2.01176358991669       -1.51747539003022
C           -3.56668184714361       -0.40806652350526       -0.03567913414949
C           -4.68615467884226        0.37360975570111        0.02964644420120
C           -3.27830551013200        2.31208491006722        0.17392579754780
C           -4.52925191480063        1.76633834600405        0.20037835774444
C           -0.47113115938022        3.33649315100249        0.22088134472520
C            0.73143731053491        3.89340425926485       -0.11139550974724
C            1.58331494695655        3.22391260653734       -1.00508323724266
H           -3.14856850589891        3.38045978198676        0.22188471596104
H           -5.40092705741685        2.38920912753340        0.31215445001765
H           -1.12347228144700        3.82055209274528        0.92796958752806
H            1.03686082559587        4.83713792373823        0.31027028765877
H            2.53120610460687        3.63671999254306       -1.30050130562083
N           -2.32648447554383        0.13636243312734        0.02120972620484
N            0.00280924399223        1.46177788452129       -1.17291472229228
H           -5.65891650914809       -0.07958329926898       -0.03166969752339
Cl           2.12355531857742        1.15014146712217       -2.64309873662238
Cl          -3.63827486798993       -2.10780320195686       -0.15428910728671
