45
 energy: -88.447866768369 gnorm: 0.000482682010 xtb: 6.5.1 (b24c23e)
Si           0.37669898579179       -0.64446726483335       -0.87968406996786
O            1.27271442028842        0.34538432840876        0.05347229631315
C            2.31764960486903        0.03197197018862        0.94743375557899
C            3.55108201255062       -0.44841862733954        0.22808245841113
H            1.97039630837382       -0.74908043640362        1.63415201426768
C            3.90369546783799        0.08983200225550       -1.00082601804274
C            4.35187178261241       -1.42888510171158        0.79707535366920
C            5.03743809647366       -0.35229115731867       -1.65842358319022
H            3.27652291211233        0.84274115107721       -1.45295697817810
C            5.48891942829238       -1.86554478220853        0.14259910219293
H            4.07224008455977       -1.86050900578852        1.74702525382895
C            5.83340075826350       -1.32909792864030       -1.08671817806622
H            5.29602712227570        0.06493647611015       -2.62023502207867
H            6.10221948868773       -2.63473334272355        0.58860514167611
H            6.71691471648093       -1.67750372737849       -1.60114922564527
C            2.63041575093167        1.31017456855546        1.74884367112153
C            1.46774703691079        1.74038441757215        2.49334921552509
H            2.93603940984183        2.09824345350188        1.05592119368972
H            3.45561354340074        1.10250901945278        2.43406703848733
C            0.46922461723259        2.05912738249910        3.07066023455092
H           -0.38308990295204        2.34944412215056        3.60787818029675
Cl           0.76178991461321       -1.01466061651549       -2.85069070762693
Cl           1.09809453612301       -2.50742067715828       -0.14257481537574
O           -1.12328134832252       -1.05209692754923       -0.14770244070150
O           -0.47433940441253        0.89317306462545       -1.53467377043391
C           -2.88451270702651        0.54770875151684       -0.26514576536817
C           -2.05349585056706        1.66295741504422        0.00999709921161
C           -0.07292230383123        2.89566271898126       -0.45345097882848
C           -3.11587920951281       -1.66837959392401       -1.14947093197880
C           -4.46953288537286       -1.52315141320967       -1.27483514770474
C           -4.29199642222959        0.65664790035630       -0.28536746061228
C           -5.07437846542857       -0.35032701002235       -0.77266667915419
C           -2.44570421727298        2.69742456754860        0.88775170515248
C           -1.65086187910679        3.78780666281842        1.09812787800283
C           -0.43271016014001        3.90079253084844        0.40977218617551
H           -4.73345437670591        1.58864113720763        0.02614358217387
H           -6.14580568444705       -0.24657097422766       -0.81311713761094
H           -3.37162193134204        2.57975435112093        1.42555501239344
H           -1.94580735532580        4.56164313211681        1.78790565389321
H            0.21546386866105        4.74827337096331        0.54133588325449
N           -2.35678886373483       -0.69571001237071       -0.58796483537501
N           -0.84922319204298        1.81370937685978       -0.64635836007423
H           -5.05022427642420       -2.30261844582669       -1.73380278777230
Cl           1.34093058917312        2.98878192492917       -1.38639816506757
Cl          -2.29146502016234       -3.07651875155966       -1.64360785101358
