45
 energy: -88.438208745648 gnorm: 0.000826218275 xtb: 6.5.1 (b24c23e)
Si          -0.07575514690401       -0.34616074854737        0.01195947103201
O           -1.57570597064864       -0.91323699540893        0.20145419798644
C           -2.68456739475129       -1.06335197699427       -0.64958702680587
C           -3.93611427752995       -0.61093055929689        0.05666825658048
H           -2.53491443750359       -0.47076123404870       -1.55961716478051
C           -4.03398012509974       -0.68839364359701        1.43909092819004
C           -5.01599731964251       -0.13946158043628       -0.67950945594412
C           -5.19581019459194       -0.29252384633650        2.07809023424918
H           -3.18873323394545       -1.04726849440818        2.00612918528858
C           -6.17956974727907        0.24783346963438       -0.03953626728226
H           -4.94012524390690       -0.07285531388468       -1.75597506720487
C           -6.27124791992771        0.17306507433379        1.34072878896824
H           -5.26153846140326       -0.34965751161602        3.15488204973522
H           -7.01527274407719        0.61354139088893       -0.61898426238710
H           -7.17871942107176        0.48044128117594        1.83971704026069
C           -2.79715830206626       -2.55441726529058       -1.03195962619914
C           -1.60633711979013       -2.98122022984148       -1.73364862529885
H           -3.67919088235663       -2.69754680542526       -1.66091825263374
H           -2.91029734086457       -3.14048384172865       -0.11567128822830
C           -0.58696127569130       -3.27617095978607       -2.28656368096777
H            0.29231146354852       -3.55402811170542       -2.78643495895652
Cl          -0.37716737237169        0.46492912753521       -1.97893840221670
Cl           0.38187453250536       -1.33823451407390        1.86684886916601
O            0.29071025742711        1.15606666513891        0.76302195846708
O            1.51682224065313       -0.67729671659726       -0.62576692542323
C            2.46258454287832        1.84165292935333        0.13257824700428
C            3.07819139254432        0.62183096185966        0.54506058477815
C            3.16072925047914       -1.77079873079035        0.59658982997710
C            0.52754991265450        3.16980768442212       -0.35907074283553
C            1.29507492784344        4.19997355308143       -0.83324271547340
C            3.25540540763339        2.93235707831697       -0.28104957390444
C            2.69690828927003        4.08204908663167       -0.76498288685524
C            4.28254717858742        0.63381905465231        1.27771123446990
C            4.88183493130874       -0.52544849685589        1.68537955585627
C            4.30788569514855       -1.76400159652317        1.34612609366428
H            4.32558910200418        2.80708048586053       -0.27386930441409
H            3.31693556249624        4.89033410712510       -1.11545528424779
H            4.68667390568274        1.58947732628414        1.56823866239197
H            5.78117948201861       -0.50030137846185        2.27819079570672
H            4.74603165914287       -2.69475056894159        1.65856629703776
N            1.09174661243481        2.04801374814909        0.13981728006599
N            2.58435125361188       -0.62010958758472        0.19250025455273
H            0.82063784595127        5.07707756577725       -1.23478561846108
Cl           2.42476902448308       -3.20609938204938        0.07679649142619
Cl          -1.16835353888276        3.25010950000905       -0.30715717633322
