45
 energy: -88.356486001360 gnorm: 0.000357289278 xtb: 6.5.1 (b24c23e)
Si          -0.18872298506140       -0.86130539146728        0.65040794417397
O            1.57363333980932       -1.07859795635390        0.27611732598654
C            2.17145647928399       -0.84163288511370       -0.79552247466450
C            3.59260668746036       -0.73019102637069       -0.87442365891882
H            1.59252958506377       -0.71458501713327       -1.71189585014919
C            4.38395036396940       -0.87656733227574        0.27858239884524
C            4.21797077767452       -0.47889512920561       -2.10668984145576
C            5.75457518560778       -0.77529980040344        0.19433845673260
H            3.88708033996678       -1.06466755779018        1.21814726386363
C            5.59074084473092       -0.37942806385074       -2.17676519796885
H            3.61117549114183       -0.36843672466822       -2.99291276686973
C            6.36225540514963       -0.52752095939866       -1.03068623307981
H            6.36012555287160       -0.88998291967836        1.08097374732416
H            6.07052470897683       -0.18751464633338       -3.12502156131941
H            7.43745885119682       -0.45043145983128       -1.09284638128404
C            2.69930448866148        0.61350783991536        3.02684728545754
C            1.47845990344562        0.42588000496908        2.62873100367303
H            3.28325475962396        1.46411623527017        2.71003911660038
H            3.17472685050296       -0.06662107223705        3.71525709824497
C            0.28581820158598        0.22028502459865        2.18048437426076
H           -0.55845665633513        0.61748946552078        2.72797732633795
Cl          -0.73746757591604       -1.87336915194873       -1.23597010407743
Cl          -0.22306084636068       -2.67478563045430        1.74956504572277
O           -1.92079760146921       -0.35947626630601        0.98343377802305
O           -0.13781367697492        0.68110570442852       -0.54917283327377
C           -2.91431452140041        0.96332532190203       -0.63727785971919
C           -2.02315505744788        2.04313078290171       -0.31715893901941
C            0.16500271038438        2.85084855643668        0.13712978250621
C           -3.61603557198819       -1.28230114463631       -0.29162013145841
C           -4.60300200789905       -1.15640082287547       -1.24339972461646
C           -3.95255845960913        1.12434905838516       -1.56555181915938
C           -4.77856392034004        0.07610137422615       -1.88301268665359
C           -2.50457853984722        3.35120267003427       -0.15465146761185
C           -1.66981509093935        4.37904580096130        0.19626542314446
C           -0.29836303181496        4.12164980511654        0.36309084159456
H           -4.04554636594392        2.07436955646367       -2.06607552751641
H           -5.55102812539020        0.19005281783591       -2.62565979903563
H           -3.56473316680015        3.51429915789422       -0.26110563467418
H           -2.05122310546271        5.37398092673699        0.35311881660936
H            0.39232532546470        4.89813355494409        0.63945258858986
N           -2.80817253596187       -0.24447551064394        0.00738826147948
N           -0.66109998992242        1.83726045041535       -0.20434574006214
H           -5.22585695756905       -2.00368760153280       -1.46795148820823
Cl           1.82826436299164        2.46649290594067        0.19188125266101
Cl          -3.39926342510811       -2.70226294438793        0.61038758896371
