45
 energy: -88.443696449420 gnorm: 0.000568590778 xtb: 6.5.1 (b24c23e)
Si          -0.24151767908375        0.78329189813974        0.72312973978280
O            0.65734987397115        1.47787003988655       -0.42148339529434
C            1.95629402743502        2.02053375353652       -0.39243559477890
C            2.94926690064634        0.96849267902611       -0.81866382299964
H            2.18817153270792        2.36039940196330        0.62450056471285
C            2.58554634494695        0.02033629995968       -1.76625644142352
C            4.22122481126099        0.92536530859016       -0.26442009355371
C            3.47906025548565       -0.96426087918694       -2.14831351860147
H            1.58840607370732        0.05028335544674       -2.18003154256730
C            5.11667441318567       -0.05569752738613       -0.65314506512284
H            4.50181833022395        1.65401476428884        0.48228310805133
C            4.74705068303642       -1.00299658023089       -1.59339982812111
H            3.18407143705683       -1.70477006403465       -2.87803886269109
H            6.10251367478511       -0.08735151796164       -0.21285023129916
H            5.44430752874594       -1.77355522125914       -1.88801988810227
C            1.98802517270200        3.22140843994821       -1.35463696551445
C            1.10753024699103        4.26908467695265       -0.88373533764920
H            1.66281791346094        2.88636894073986       -2.34277985226858
H            3.01238128537882        3.59674051662335       -1.42262491105841
C            0.36190352842360        5.10222927863870       -0.45883968058164
H           -0.28318804546001        5.84672298536359       -0.09914164965782
Cl           0.93244562751534        1.28662995716443        2.43799340511873
Cl          -1.96153190845633        1.65124137469296        1.47145292611988
O           -1.15931083701245        0.12072311868571       -0.75781073344791
O           -0.09590209107321       -0.84086987403061        1.26360970227966
C           -2.42143541757578       -1.76012574111680       -0.18998391970675
C           -1.23769207115381       -2.51920404575905        0.00146456689369
C            1.11707240800953       -2.62456062577675        0.44283265462658
C           -3.45967064494281        0.27358663167355       -0.87595803124423
C           -4.71585008532066       -0.26675160655745       -0.74219808041657
C           -3.70694244823386       -2.33149659211322       -0.06852381786436
C           -4.83333830731446       -1.59868564327102       -0.31577214993074
C           -1.18315934660914       -3.88549821044501       -0.35358482183819
C           -0.00418007005157       -4.57223966445900       -0.37006655247457
C            1.19112676402660       -3.91208803218399       -0.00974374305672
H           -3.77951474085803       -3.34891190228102        0.27729925321147
H           -5.81095536951016       -2.03393004174902       -0.18890538401355
H           -2.09321302039453       -4.35701079601517       -0.68504320918427
H            0.03055292233578       -5.60395049161515       -0.67761737546754
H            2.14459519735956       -4.40591182654188       -0.05750212633724
N           -2.35345492097610       -0.44182005670442       -0.59088104770450
N           -0.06431467211240       -1.96121128459464        0.49433267461368
H           -5.57808228266876        0.33343587996591       -0.96989234814490
Cl           2.48531661462330       -1.78319882381305        1.01968266491632
Cl          -3.21389360921556        1.84255374781546       -1.47532923821068
