45
 energy: -88.438190781360 gnorm: 0.000849167314 xtb: 6.5.1 (b24c23e)
Si           0.12822551890632       -0.16216019812281        0.41705482331503
O            1.61196733050938       -0.64723960842764        0.81181415833886
C            2.56205324968566       -1.52731465640219        0.26295336290683
C            3.76320086486192       -0.74902772722518       -0.21083568142796
H            2.12018834578279       -2.07739447008274       -0.57568221765519
C            4.10606705346592        0.45228015550150        0.39405830210248
C            4.54910309130817       -1.24210647433767       -1.24406514426705
C            5.21771617873981        1.15554651603909       -0.03477668339642
H            3.48860225017221        0.83441240886867        1.19279380550976
C            5.66496426820906       -0.54183827183602       -1.66572768195592
H            4.28013226294966       -2.17407691054873       -1.72111168016474
C            6.00045862312647        0.65907177524637       -1.06285116309878
H            5.47440402722732        2.09288014591233        0.43708779010597
H            6.27108029058350       -0.93152023638735       -2.47055940768527
H            6.86912738254289        1.20755241023340       -1.39641156800398
C            2.96787378131278       -2.52830751413489        1.36206691882070
C            1.84339541367591       -3.36110090982152        1.73008528790219
H            3.30769015688068       -1.96576455118134        2.23563493373439
H            3.78857011181559       -3.15000290830517        0.99471391062000
C            0.88022000219620       -4.01747943152098        2.00083879801817
H            0.05474902816415       -4.61127210250877        2.25805293401000
Cl           0.21051571271841        1.09262161277537        2.15021204796306
Cl          -0.09012641540775       -1.52238199102594       -1.29381760709347
O           -0.20531476478297        1.10828057093300       -0.69919477063775
O           -1.49924572176410       -0.47578003381747        0.92758019823284
C           -2.41839041590304        1.84734964531153       -0.35699539912449
C           -2.98158220852333        0.55428513512359       -0.57718863150303
C           -3.00892488807450       -1.81472181766419       -0.22216173017808
C           -0.54227162946907        3.30450426235113       -0.03721569526805
C           -1.35633269112651        4.38310757008575        0.18612792622347
C           -3.25642214271800        2.96975471485065       -0.19677109531751
C           -2.74907739977752        4.20826439700817        0.08129276026575
C           -4.13331234930200        0.39985324740928       -1.37573336558433
C           -4.67561863665601       -0.83109278391705       -1.61950562138403
C           -4.09617942465985       -1.97519375757469       -1.04009526887163
H           -4.32174917918398        2.81107974225646       -0.22727006790253
H           -3.40484475413234        5.04770526415145        0.24224561307992
H           -4.53896180387435        1.27868782639981       -1.84903545006196
H           -5.53207426168172       -0.93704198541633       -2.26448473640563
H           -4.48732644164946       -2.96035702902500       -1.21983938584839
N           -1.05553287079656        2.09142350667238       -0.33493236104747
N           -2.48723824919488       -0.59343762746035        0.01716294225765
H           -0.92306608930034        5.33661333163968        0.42859348079856
Cl          -2.28248957137005       -3.11568020058602        0.58493348285695
Cl           1.14857296450914        3.42518195855248       -0.02181706317171
