45
 energy: -88.447875472472 gnorm: 0.000644627237 xtb: 6.5.1 (b24c23e)
Si           0.20675499735636       -0.79144727759279       -0.28620022135035
O            1.12833738569030        0.41399528221975        0.30546787482239
C            2.22296271353608        0.35307358599382        1.19239958481234
C            3.42364256102731       -0.30702173286090        0.56599564425639
H            1.92223317879904       -0.21071921866390        2.08350422145666
C            3.69053539441836       -0.14766085147520       -0.78584349270015
C            4.28221303831596       -1.07112348704621        1.34410640639616
C            4.79530734781780       -0.75330465647372       -1.35674195167818
H            3.01884276209200        0.43539407985787       -1.39702199384636
C            5.39092811964379       -1.66960217559836        0.77461907901073
H            4.06995649104063       -1.20846446201730        2.39437002855342
C            5.64909114650080       -1.51298413397291       -0.57690986875703
H            4.98616156341836       -0.63286362259985       -2.41286025184816
H            6.05010968580007       -2.26811973825668        1.38566001054676
H            6.51051696797057       -1.98818526928886       -1.02238864964243
C            2.56248764271527        1.80029067443944        1.59729487772551
C            1.43397133669029        2.42252334622646        2.25340641312899
H            2.82590387460019        2.36778945633501        0.70097629490387
H            3.42270503420370        1.78416047443740        2.27076667300501
C            0.46278828970739        2.89176887894494        2.77177298388459
H           -0.36596977303123        3.32021875052005        3.25035450867135
Cl           0.50662240152000       -1.68117316761959       -2.09959309063121
Cl           0.98202006423338       -2.38481629102646        0.89420935140514
O           -1.25650187137595       -0.98980823780607        0.58727608312771
O           -0.68898176836899        0.51620712899440       -1.29448713999239
C           -3.03842086960777        0.52366743365620        0.12575204669604
C           -2.21100346875239        1.67240515384179        0.05360949276067
C           -0.26811567444752        2.73642899567497       -0.81268125237333
C           -3.28063473628682       -1.84680391404653       -0.13606081753199
C           -4.64000832086143       -1.74037455179122       -0.23472854867950
C           -4.44703475786602        0.62221072469057        0.14342193837008
C           -5.23713184018370       -0.47775942350417       -0.02714291649640
C           -2.58016333324622        2.90600712011691        0.63386208495192
C           -1.79328932308310        4.01449428012711        0.50371568702114
C           -0.60616614866487        3.93823270512638       -0.24135039441142
H           -4.88670237960415        1.60264467247421        0.22063952113063
H           -6.31060635919850       -0.38933741974426       -0.04285192831513
H           -3.48096675552205        2.93784488699818        1.22372634785902
H           -2.07107890474436        4.94680059313579        0.96766011050762
H            0.03482092210235        4.79098830676757       -0.37391371896113
N           -2.51048598995347       -0.76105901475940        0.11995631136431
N           -1.03712986512128        1.64151908612948       -0.67120704120529
H           -5.23002965250577       -2.61262885020213       -0.45015011980837
Cl           1.10598998115224        2.57473636911659       -1.79477119440719
Cl          -2.46071910792817       -3.33474148947973       -0.28374898373111
