45
 energy: -88.443376751261 gnorm: 0.000699774692 xtb: 6.5.1 (b24c23e)
Si           0.16702241845127       -0.43548493214964        1.23990526910504
O           -1.01030823818957       -1.41163501763974        0.75086426633688
C           -1.44534023560432       -1.90185040145396       -0.50180148811313
C           -2.77855487926141       -1.27502924466646       -0.81930096311902
H           -0.71484433939138       -1.63239880462859       -1.26798899321913
C           -3.76462887098796       -1.22216128752639        0.15838648316548
C           -3.02619291533917       -0.71924220824776       -2.06645706649357
C           -4.98201203332438       -0.62291035208207       -0.10999722807628
H           -3.56006166935520       -1.63170196736065        1.13660258153549
C           -4.24659879755367       -0.12399309894008       -2.33560197666842
H           -2.25778672046585       -0.74989867278344       -2.82616302192586
C           -5.22581622388352       -0.07425353823622       -1.35804894997008
H           -5.74102092998439       -0.58071171992210        0.65783036023107
H           -4.43097149067054        0.30708535388224       -3.30891951440098
H           -6.17566415190510        0.39558606457896       -1.56683166200281
C           -1.54952364235704       -3.43398430076819       -0.40880731579918
C           -0.24313721889659       -4.01362075019030       -0.17964712850830
H           -1.97470227604643       -3.81996433629838       -1.33919373571842
H           -2.21033612684402       -3.69393459424578        0.42158637621577
C            0.85403390429075       -4.44726538024809        0.01946810988115
H            1.80886232702149       -4.84013159898365        0.20474454560817
Cl          -0.47150099518417       -0.45750398491567        3.21456524580530
Cl           2.09259953667247       -1.06271363658239        1.59114219370475
O            0.68759203779254       -0.15665199997631       -0.70711915919678
O            0.01981029832364        1.25629049725896        1.24154144022704
C            1.97624715808432        1.77847415018840       -0.84605687222068
C            0.83053415725084        2.57141860201402       -0.58132058930516
C           -1.46157146509016        2.64522692002727        0.11579851898400
C            2.89673739581473       -0.36699187426789       -1.29929228791790
C            4.13882377423553        0.16464360740368       -1.55344908895643
C            3.24532736425620        2.33792941941948       -1.10482331886381
C            4.31249537820085        1.54950268455202       -1.43451927355306
C            0.65426481464625        3.84705793742507       -1.15770405976762
C           -0.56203333214836        4.46697148551308       -1.14365800956468
C           -1.67106540346330        3.81325220427941       -0.55805215522199
H            3.36361212574453        3.40222903177938       -0.99089658470396
H            5.28417966265348        1.98290579786636       -1.60584465581959
H            1.48730198108383        4.29088385162099       -1.67703828709957
H           -0.69874422530686        5.42867665442645       -1.60889373870852
H           -2.66144769253065        4.22693086665428       -0.61779898157401
N            1.85617966457404        0.40811863285789       -0.93776363381482
N           -0.22669996663014        2.08787704817319        0.18475797981682
H            4.94615837887331       -0.48675289907647       -1.83550676301178
Cl          -2.71179118027201        1.81935774580860        0.93400325438006
Cl           2.56996064271963       -2.02743795453914       -1.48271712168264
