45
 energy: -88.443527641555 gnorm: 0.000729163817 xtb: 6.5.1 (b24c23e)
Si           0.42876687341776       -0.12823961799793        0.46316769841065
O            1.14298891405947       -0.79541176817957       -0.82219260464726
C            2.28675033864016       -1.62341283139561       -0.85513942893205
C            3.50864448973667       -0.84537172071903       -0.44102174270070
H            2.13909261088934       -2.46235678656608       -0.16343310427322
C            3.67594209417074        0.45845023992821       -0.88811941325748
C            4.45576937307971       -1.40435899281103        0.40428143148210
C            4.77235243234599        1.19894203949676       -0.48696381923609
H            2.92731081804049        0.89276053630592       -1.53399762890643
C            5.55779489890259       -0.66562418974386        0.79761480661547
H            4.31902786311345       -2.41268364539371        0.76641153012465
C            5.71635797033929        0.63674571209460        0.35568066580444
H            4.88828804588129        2.21734519378354       -0.82845471426415
H            6.28792501381052       -1.10455523481651        1.46160377670227
H            6.57070084989167        1.21601244736711        0.67380517198213
C            2.42968361955779       -2.15403058177017       -2.29112153411641
C            1.32453471562304       -3.02139879060410       -2.63676231021744
H            3.37094335492837       -2.70388695220059       -2.37243108747899
H            2.45217830668892       -1.30349179005555       -2.97648913822480
C            0.39673599440839       -3.73288723559327       -2.89126686295817
H           -0.40794645159124       -4.36153696688304       -3.13051386793312
Cl           1.10415615101821        1.51622095750692        1.53796170073514
Cl           1.07287666572071       -1.50953576067378        1.96639374799619
O           -0.32356715993762        0.99693089685675       -0.82919381288225
O           -1.16136723165433       -0.58816342060331        0.88290616655441
C           -2.37189682707378        1.84212220560825       -0.06952446602978
C           -2.96106469059842        0.55695261657011       -0.17239333561043
C           -2.66320417709102       -1.81119765306439       -0.38599137160103
C           -0.50447569170323        3.26688378005412       -0.45883489358014
C           -1.20962400597394        4.38017131553824       -0.07220685118495
C           -3.11040380485338        2.98043670205039        0.32132483429896
C           -2.54083776420957        4.22173331418865        0.34349531175087
C           -4.30709193917817        0.38193484798738       -0.56073838654715
C           -4.78989808469968       -0.84904136783668       -0.90109107963719
C           -3.92899694894164       -1.96835794655854       -0.87778273677630
H           -4.12580197017013        2.83570677206934        0.64990747749372
H           -3.10289268957689        5.08029325944332        0.67219161536486
H           -4.92721218229641        1.25781060779373       -0.65490178789729
H           -5.80983741722377       -0.97128270279015       -1.22534132043471
H           -4.25473351031301       -2.93441068891632       -1.21847031272854
N           -1.05510273642158        2.03645786723131       -0.43588173728749
N           -2.22575160058603       -0.60114049645563        0.03737806150614
H           -0.73532995046697        5.34470254025538       -0.09848224221675
Cl          -1.56527982123369       -3.10460692946965       -0.23224811150190
Cl           1.07799326153042        3.38032821896324       -1.05778329376248
