45
 energy: -88.443997294021 gnorm: 0.000496791768 xtb: 6.5.1 (b24c23e)
Si           0.19763482812645       -0.59721370893202        0.61407950802913
O           -0.80911998052855       -1.30260383389871       -0.42672886018690
C           -1.97899750240912       -2.06161968283766       -0.23700015737169
C           -3.17738176133549       -1.25825691857036       -0.67476801748337
H           -2.07686804858202       -2.32567532676899        0.82320955879017
C           -3.05643617513965       -0.33520163538554       -1.70503333666894
C           -4.40750053546121       -1.43044321427266       -0.05472294806492
C           -4.14996710422359        0.41144599600956       -2.10587460510620
H           -2.09274141845078       -0.19680442160545       -2.17227166902342
C           -5.50245010590961       -0.68909698263514       -0.46251902246144
H           -4.50115488391666       -2.13932573362564        0.75523109455961
C           -5.37565811188826        0.23402933758659       -1.48711158039520
H           -4.04500208536747        1.13444691340412       -2.90205954724201
H           -6.45574466568675       -0.82604049887913        0.02649608932818
H           -6.22974850955281        0.81713999663269       -1.79902962867506
C           -1.84842005579435       -3.34977875186260       -1.07139635185878
C           -0.72549132160086       -4.13298666482084       -0.60156027108605
H           -1.69084630039865       -3.07511807893051       -2.11756818051721
H           -2.77232632667205       -3.92723671984063       -0.98713664720694
C            0.22132510266614       -4.73063386380233       -0.18052532726934
H            1.04519713272907       -5.27033807364243        0.17992767626329
Cl          -0.77946521848983       -1.07363219744394        2.45117352231220
Cl           1.99813261855746       -1.43130888165973        1.20617129185625
O            0.96775071959200        0.05441318955329       -0.95930709293001
O            0.03654144879765        1.03372168087935        1.11277338738076
C            2.29331355473229        1.91970901886532       -0.48293344330297
C            1.13649264394431        2.69265326297703       -0.20814726132354
C           -1.21701064226164        2.77003661850811        0.24154318122768
C            3.24394400013091       -0.11682076649442       -1.27709123953127
C            4.51526152208515        0.40216704877279       -1.23218151261452
C            3.59521006220534        2.46455054798670       -0.43593619984665
C            4.68723113417181        1.71985019668283       -0.78228978436069
C            1.07781182862492        4.06978555788682       -0.51707893943928
C           -0.10489248410621        4.75075053576182       -0.50038182137759
C           -1.29874983676108        4.06806853420246       -0.17696403407126
H            3.71116908417329        3.47114699200181       -0.07103656185472
H            5.67928474795960        2.13540713324607       -0.71531519383557
H            1.98265406529770        4.55630863493535       -0.84085630003164
H           -0.14560656843314        5.79360780718039       -0.76681175059970
H           -2.25656547686730        4.55265391132460       -0.23309919792061
N            2.17399282682170        0.60956723211901       -0.89703634952954
N           -0.02509930510641        2.12758642602482        0.30490846285275
H            5.34728804792271       -0.20545100694881       -1.53892840846086
Cl          -2.58512954257092        1.87948078846904        0.74633609556657
Cl           2.92546359898181       -1.67383539814813       -1.87284462650861
