45
 energy: -88.440648718373 gnorm: 0.000540719893 xtb: 6.5.1 (b24c23e)
Si           0.04675277189383       -1.08448912880423        0.64016588748976
O            1.59446260906926       -1.62673141329734        0.59373639623616
C            2.46906299584350       -1.71738977227740       -0.51140399419922
C            2.95103953173171       -0.33752872198310       -0.88391322803944
H            1.92208616147242       -2.14807096740166       -1.36147229715956
C            3.72273352372225        0.40186312386051        0.00270530777887
C            2.55526464345723        0.24339016339559       -2.08089998982591
C            4.09111597152251        1.69993533552817       -0.30244730276729
H            4.01701000622102       -0.03380291183516        0.94582244294594
C            2.92074226707469        1.54275390905659       -2.38535616961183
H            1.94551809551071       -0.32262641132521       -2.77088339925361
C            3.68789054726477        2.27483858196901       -1.49551234439157
H            4.68678823057471        2.26833989104947        0.39729645457067
H            2.60050144204653        1.98716450294536       -3.31692066931692
H            3.96782163588697        3.29181010942832       -1.72940950473421
C            3.62103484805261       -2.66352083624773       -0.13667963209854
C            3.14499791551817       -4.02699906805506       -0.04207598142428
H            4.03216659962217       -2.36170412928441        0.82858302096068
H            4.40152996819622       -2.59419352699601       -0.89947487179823
C            2.71250146927518       -5.14005472390798        0.02657660437714
H            2.34515656063418       -6.11997069007167        0.09321201726105
Cl          -0.09447830864705       -1.42024367278213        2.63265146927294
Cl          -0.66335748755166       -2.17306786079487       -0.99736474736503
O            0.40885353179942        0.48139222330834        0.04337154416657
O           -1.76696246850056       -0.38869183316216        0.89629105741037
C           -1.35922800268517        2.03568567808381       -0.35860219638541
C           -2.29754162118154        1.08634207888354       -0.83954894038084
C           -3.45471088460535       -0.97376725270324       -0.55137460547210
C            0.47217561835429        2.53735421212386        1.10352267802145
C            0.18495034798344        3.87109578686380        1.08084380698290
C           -1.58164512541202        3.42410707987799       -0.48161891503219
C           -0.82643330085335        4.32948163313236        0.20643432617923
C           -3.10891829887627        1.33844801194827       -1.96712355386044
C           -4.05588479975636        0.44148685922544       -2.37561823378430
C           -4.25001679712424       -0.74005820489632       -1.64745430728976
H           -2.41642938291577        3.75436592485360       -1.07706396987566
H           -1.02168594411716        5.38579916003026        0.12800119888051
H           -2.93025641240218        2.23911960200072       -2.52993612745977
H           -4.65213499036370        0.63298677216995       -3.25274887352176
H           -4.99506041459272       -1.46341019994442       -1.92571087557425
N           -0.21164448473565        1.65643268735397        0.33105407413432
N           -2.50467678166315       -0.09884372332895       -0.16587042663219
H            0.72991719750632        4.54773202036913        1.71403165450270
Cl          -3.64736782351302       -2.35375358601402        0.42215486001141
Cl           1.70852283926755        1.88465328766434        2.07548435606982
