45
 energy: -88.444699636688 gnorm: 0.000778492794 xtb: 6.5.1 (b24c23e)
Si          -0.47732585710719        0.97225410286633        1.14870992719130
O            0.31732428114469        2.03278275477442        0.22274162501121
C            0.52019576668917        2.09724423888452       -1.17830293075267
C            1.60377381531205        1.12058322795856       -1.55846431464065
H           -0.41056019285758        1.82891619060617       -1.68610633751810
C            2.86856408007426        1.23410693153497       -0.99474015185515
C            1.33872918447343        0.06023947013884       -2.41441988041437
C            3.85185269442565        0.30548130344206       -1.28569081386364
H            3.07640799228574        2.04553441593901       -0.31383808148047
C            2.31850951602508       -0.87548250063384       -2.69640218184432
H            0.35729524730317       -0.03393338103216       -2.85542151576179
C            3.57735698722543       -0.75436910351086       -2.13310822749336
H            4.83227254340922        0.40615556587218       -0.84429985969425
H            2.09861614318469       -1.70149380571563       -3.35726782208343
H            4.34219931618671       -1.48348230146030       -2.35608772376635
C            0.88583795597961        3.54694911655376       -1.53213642747441
C           -0.26444805277126        4.40973401237499       -1.36426627409995
H            1.23201078461581        3.58431479956828       -2.56881782558960
H            1.68722137196979        3.88647343772148       -0.87310776849603
C           -1.24279028647458        5.08213422012414       -1.21540983491433
H           -2.08643888015498        5.69097107964749       -1.08302844509687
Cl           0.18250402648138        1.92424443078609        2.88854062000392
Cl          -2.47646465259370        0.97505776136956        1.66160962185902
O           -0.91399878511742        0.01276359436478       -0.47016819565265
O            0.19648091588987       -0.51421616531328        1.69482580614013
C           -1.16135754047596       -2.27623518245887       -0.11130063626119
C            0.21376237768640       -2.38953148354923        0.22279529129696
C            2.23171568362442       -1.43843869323061        1.09917675246214
C           -2.98468061323878       -0.93128956414581       -0.84739470458482
C           -3.82677737504820       -2.01537583201393       -0.89838640900528
C           -2.00795876569982       -3.40285072775558       -0.19153696805522
C           -3.31970893081836       -3.27808390436187       -0.55277319567093
C            0.97315035223073       -3.50637907760220       -0.18527656380421
C            2.32455807323545       -3.55643944736086       -0.00453545313947
C            2.98218746628411       -2.47620100891636        0.62312138220159
H           -1.60454743316937       -4.35990328332659        0.09395170726321
H           -3.96841178974586       -4.13811927019489       -0.57764308464611
H            0.46176742837880       -4.29619103824397       -0.71023413795223
H            2.89859999070054       -4.39860154708596       -0.35265019960982
H            4.04909907642125       -2.46441490374480        0.75156498985940
N           -1.70379525027273       -1.05229593645325       -0.44673193612138
N            0.88599501561854       -1.40908182010771        0.94135657842952
H           -4.84623954204337       -1.88106213444104       -1.21199861972322
Cl           2.91695459924733       -0.14151913197431        1.96280837479798
Cl          -3.48043373851407        0.61448759010671       -1.36048615545041
