45
 energy: -88.443513235572 gnorm: 0.000686617494 xtb: 6.5.1 (b24c23e)
Si          -0.12697292213241       -0.35548405600860        1.19588562529039
O           -1.14327721225541        0.80547356347472        0.67361355585651
C           -2.54776131419038        0.88243297945500        0.51995095832258
C           -2.99985224127842       -0.05799891818573       -0.57527334503842
H           -2.71057138050914        1.91736250291825        0.17336340132430
C           -2.29844631497909       -0.01861584599721       -1.77600778262779
C           -4.04997357314534       -0.95379121699890       -0.44056006421734
C           -2.62753116907847       -0.86598661266286       -2.81629890892713
H           -1.47885076669791        0.67915366932802       -1.88453003052864
C           -4.38410437730389       -1.79747197692123       -1.48639510603034
H           -4.60583269242116       -1.01714358606740        0.48055340102390
C           -3.67472966608429       -1.76035148430212       -2.67329896538853
H           -2.06561693056646       -0.82913891521846       -3.73838842206032
H           -5.19848777215918       -2.49624824967758       -1.36556944285182
H           -3.93339283098868       -2.42709951633650       -3.48270291515344
C           -3.26548600852198        0.71005394793959        1.86414105047778
C           -2.72519951402287        1.63156832556089        2.84151548291540
H           -3.12246186982526       -0.31160908837769        2.22243608976905
H           -4.33135464662637        0.90858631643323        1.72790733248990
C           -2.24592226303592        2.40018037468575        3.62291285890093
H           -1.83327251497792        3.05775663128064        4.32821753512020
Cl           0.55980678440079       -0.47315276888715        3.11127463552603
Cl          -1.46530950111105       -2.00696583999766        1.30896187706133
O            0.61838615042061       -1.22340515822559       -0.08622414580338
O            1.24655380729999        0.92075852475685        0.97948761057564
C            2.37349338030224       -0.13513512967824       -1.27893397546018
C            1.74586642321066        1.13634449518938       -1.29139529009525
C            0.64379046632775        2.87582322677484       -0.09402414300088
C            2.69222649345995       -2.24579386719734       -0.19089592727576
C            3.87267015623829       -2.45378807772167       -0.84783952920929
C            3.52737516242038       -0.40266194388562       -2.04624881724506
C            4.26402091125491       -1.53457150804997       -1.84616817750914
C            1.71283189921981        1.95333815735245       -2.44220974471943
C            1.13095628444793        3.18933713520933       -2.41404872752637
C            0.58466716032848        3.67127774416739       -1.21399058045784
H            3.85708103911440        0.34816082180051       -2.74508866318766
H            5.16156802972372       -1.71692762966651       -2.41317558124352
H            2.11385862063436        1.55432763868031       -3.35886745550775
H            1.08330357824901        3.79603852640167       -3.30349602318972
H            0.13242457601359        4.64447076525346       -1.14896604731148
N            1.92352779565855       -1.16186893833571       -0.45874709542416
N            1.19970541979674        1.64981615350966       -0.13263906036797
H            4.47235094839160       -3.31353018875892       -0.60952885803343
Cl           0.06453970469135        3.40056571452850        1.41526230755827
Cl           2.08230869031916       -3.33490369754503        0.97125810318395
