45
 energy: -88.444162686126 gnorm: 0.000675968494 xtb: 6.5.1 (b24c23e)
Si          -0.26105597602928       -0.38284888376597       -1.06162158646554
O           -1.34122775691358       -1.12390361245017       -0.12395534181638
C           -2.05154969852767       -0.74499040099418        1.03436342089380
C           -3.51394970893006       -0.57428887944754        0.71055681735875
H           -1.64613368198795        0.19399829352683        1.41955062322279
C           -4.10388698242273       -1.31281422234019       -0.30561421411683
C           -4.28386339860284        0.32313299943281        1.43936340946897
C           -5.44849086743122       -1.15245657981815       -0.59057467625993
H           -3.49770142433154       -1.99624783224202       -0.88013030425007
C           -5.62890137275310        0.47792947880215        1.15637598058892
H           -3.82455769005209        0.90509715162390        2.22646351632262
C           -6.21331800096980       -0.25968135660314        0.14039103557065
H           -5.89910899185681       -1.72601439903539       -1.38699006449393
H           -6.22036124980430        1.18054979608664        1.72532392708423
H           -7.26245052462301       -0.13383876021011       -0.08347535288199
C           -1.84771929270838       -1.84465369450264        2.09491664976093
C           -0.49252777630943       -1.81305787095205        2.59841415845198
H           -2.05012903028901       -2.81403883609522        1.63311837911099
H           -2.55081286924750       -1.68701189552962        2.91633286235902
C            0.63770132498940       -1.73391517026947        2.98399252011298
H            1.62186137393508       -1.69318426429860        3.34504533687291
Cl          -0.66158218260678        1.22155435870115       -2.30399192470033
Cl          -0.43565656277252       -1.85068336627387       -2.54222825608624
O            0.09380019037170        0.84984259830510        0.39371967381160
O            1.41543180928950       -0.70276219759521       -1.02440043432360
C            2.19630659606736        1.83011668877733        0.14279033847032
C            2.82882706741236        0.58798450433970        0.40688162740231
C            2.71134116550086       -1.80391462214475        0.53793839209817
C            0.19605638795712        3.11743153677369        0.01379588041664
C            0.89626407218289        4.27729463843878       -0.21081855061146
C            2.92808612272253        3.01801577207075       -0.07427281415953
C            2.29696534032901        4.21411186951678       -0.26832756176295
C            4.04899238952612        0.52154593832383        1.11441910250721
C            4.54965985162355       -0.66743953806105        1.56051413152782
C            3.83414613561006       -1.86063017576256        1.31543883943913
H            4.00108211621970        2.94829993261089       -0.13505813424459
H            2.86328119039171        5.10971744505809       -0.46399855371937
H            4.54356668822997        1.44711318956369        1.35797703434074
H            5.46595676605192       -0.70393440398822        2.12594880586003
H            4.16316450704036       -2.80547893479569        1.70931442856935
N            0.82072984828954        1.93320143586039        0.16483964719770
N            2.26214597594980       -0.62638176482711        0.03809969300726
H            0.36474074030280        5.20360195343308       -0.33396550922353
Cl           1.82460572487768       -3.19288514217040        0.10713519415721
Cl          -1.49836734570673        3.10848122293240        0.18254685312960
