51
 energy: -86.706697330730 gnorm: 0.000999055616 xtb: 6.5.1 (b24c23e)
Si           0.31862982905649       -0.56705660158055       -0.42467561188591
O            1.08508129506619        0.84555851103111       -0.14846762397612
C            2.16221178652715        1.21576320189918        0.68685731269254
C            3.42520821635610        0.46277560690282        0.32946831526018
H            2.32088127740196        2.28207328930800        0.44847245694407
C            3.69169863764998        0.23752846800213       -1.01647452099950
C            4.33194434873758        0.00599404447311        1.27542041695991
C            4.82170041074327       -0.45308180787332       -1.40994508733790
H            2.99149031566088        0.58701781647320       -1.76105510665892
C            5.46875284586592       -0.67775300985421        0.88025161573378
H            4.15673577690742        0.16077476956058        2.32793359398013
C            5.71594173206435       -0.91446536394736       -0.45980683530725
H            4.99951554968634       -0.63377253069468       -2.45958638403586
H            6.15947083501531       -1.03682485442697        1.62913086001601
H            6.59758235041857       -1.45986064183013       -0.76245135503025
C            1.74923622791883        1.11558507940700        2.16314273138554
C            0.48605178227727        1.79004150270155        2.36933970040142
H            2.51313560086481        1.58383842303489        2.78788015359435
H            1.64330594466661        0.06272121227956        2.43328044586272
C           -0.56377065927174        2.35378385426598        2.48166939329576
H           -1.48601659532009        2.83316647351207        2.62224249299665
Cl           0.60219739300868       -1.66541064014837       -2.14443820630250
Cl           1.57920255585222       -1.86642728531685        0.76734842702264
O           -0.91273960548780       -0.94024935390436        0.69656101711455
O           -0.89943183629293        0.32455363784102       -1.43369713064833
C           -3.06870355394566       -0.05162405295305        0.23632093551074
C           -2.59241991418743        1.24273549572676       -0.09549628987697
C           -1.08715961121458        2.62909850921647       -1.34035512915608
C           -2.66575655209298       -2.41950514666853        0.42356354253015
C           -4.01241744843570       -2.66519097788129        0.44983252958534
C           -4.45119290926621       -0.31133306850710        0.36884778238683
C           -4.92279752560417       -1.58703647565996        0.47438255523702
C           -3.26174843907007        2.40917307665050        0.33749871230038
C           -2.83091063700856        3.64907248841166       -0.03539838212368
C           -1.72731605097005        3.76147729557824       -0.89791765301636
H           -5.13363072218909        0.52032702595825        0.30747111775662
H           -5.98127692247746       -1.77978050041340        0.54310538239489
H           -4.09401185272559        2.29457620047249        1.01258934049430
H           -3.32778801066341        4.53705186015993        0.32170157534135
H           -1.38330346659889        4.72766856240700       -1.22503358737600
C            0.03581261839495        2.66466729088013       -2.31312633804663
N           -2.22564512226011       -1.13850685618621        0.39004635857039
N           -1.50761358006917        1.41788530940714       -0.92843167589046
C           -1.63614862988419       -3.48977621916642        0.45804919657247
H           -4.36810905924276       -3.68100070352578        0.46693938491176
H           -0.93502510504366       -3.31880898183837        1.27399046957383
H           -2.10091320204955       -4.46385538271114        0.56987572985575
H           -1.05147440831022       -3.47243309638637       -0.46246693984650
H            0.20845728665358        3.67702996045370       -2.66402525480621
H            0.93731394882088        2.27858482160567       -1.84225641535775
H           -0.18721714592915        2.00986476385741       -3.15459001860519
