51
 energy: -86.705215375026 gnorm: 0.000428465650 xtb: 6.5.1 (b24c23e)
Si           0.29969798411577       -0.07794049149638        0.52571215535444
O            1.06860508759392       -0.72687757149754       -0.74477248816918
C            2.24255424027108       -1.50608909628006       -0.75285904811900
C            3.43280831633920       -0.68911648689858       -0.32146230541866
H            2.11583456510314       -2.35088513955504       -0.06429572341738
C            3.55678168483483        0.62598673950160       -0.74785080651817
C            4.40158641160779       -1.23140586135101        0.51000935800031
C            4.63426258709243        1.39273150441017       -0.34424523464021
H            2.79016210999614        1.04671993055804       -1.38141571019375
C            5.48383502729349       -0.46605668593259        0.90697428017810
H            4.29650729303510       -2.24800783366612        0.85901738344443
C            5.60188588631548        0.84607475506352        0.48153470195683
H            4.71852924722097        2.41872886929660       -0.67216145036258
H            6.23124211160309       -0.89229770093058        1.55997085814046
H            6.44295906071105        1.44457575221131        0.79969753512238
C            2.43868862568029       -2.03375420625412       -2.18518434997528
C            1.35349779854729       -2.91046264058305       -2.56590106271172
H            3.38690459762195       -2.57478976600669       -2.23539936170706
H            2.47589789569492       -1.18336606596103       -2.86999762924342
C            0.43279466698179       -3.62536201040080       -2.83782096722909
H           -0.35867358111611       -4.25948668664965       -3.10583786493503
Cl           0.93884590466897        1.57758904933891        1.61009273351619
Cl           1.06678792355299       -1.43277295938703        2.04631424758535
O           -0.49844461199548        0.96027764916733       -0.73382706860186
O           -1.22104858452592       -0.66263115123440        1.00034602875594
C           -2.61456253433774        1.65226611626912        0.01396100625027
C           -3.11019541232070        0.32447670548260       -0.04972068461525
C           -2.66987428831533       -2.04180708245027       -0.15295470859905
C           -0.87909397996323        3.22668333381819       -0.48521476084234
C           -1.69847559062533        4.27269995020560       -0.13499380450619
C           -3.44910137165755        2.73217614797355        0.37849071798722
C           -2.99792602806352        4.01918376190132        0.33300077093435
C           -4.44381891093412        0.05897823273628       -0.43400225374418
C           -4.85403914463893       -1.20990046369886       -0.72167416170625
C           -3.93043096064565       -2.27376377362173       -0.63366456988204
H           -4.43907264088573        2.50806703549408        0.73935960155403
H           -3.62960384697017        4.83606250024194        0.64248367875135
H           -5.11138369650810        0.89392200096375       -0.56777669351718
H           -5.86404842240928       -1.40226662642603       -1.04498665204308
H           -4.21708583612320       -3.27067364570833       -0.92118892937793
C           -1.65351770753929       -3.10726843491712        0.04573481542866
N           -1.32511999250856        1.95907081901702       -0.37056001165573
N           -2.31468490259964       -0.78119139944289        0.19103746131714
C            0.48329314575482        3.43072202693901       -1.04421472184134
H           -1.33302711051335        5.28144796690399       -0.22078603873253
H            0.63986300078625        2.75388602829232       -1.88185156264760
H            0.60789562482237        4.46023268335786       -1.36549509868994
H            1.23011768955637        3.19669536609881       -0.28657796099709
H           -0.80157605634604       -2.92980824613350       -0.61388131757684
H           -1.27386329668229       -3.08588364608468        1.06645979428621
H           -2.07699197857535       -4.08378525267733       -0.16685112634657
