51
 energy: -86.618179348483 gnorm: 0.000388911155 xtb: 6.5.1 (b24c23e)
Si          -0.15485037482970       -0.76775981592241        0.67423566998343
O            1.57910158474976       -0.85716661611601        0.29477122015220
C            2.16506424033262       -0.80645318140643       -0.82408667079845
C            3.55261937755406       -0.53162856611136       -0.94625447013208
H            1.58857239293292       -0.98519081438847       -1.73118945113267
C            4.33829017262208       -0.26913330135050        0.19362735295930
C            4.16908447568678       -0.52524600464663       -2.21183297181919
C            5.68393550934790       -0.01322524003687        0.06451898691625
H            3.85352809829044       -0.27671697575590        1.15834819912724
C            5.51691644328110       -0.26788274357680       -2.32497400550713
H            3.57194952906107       -0.73129299523875       -3.08767160521123
C            6.28005211829318       -0.01114886340163       -1.19162185860220
H            6.28236099511000        0.18480517695368        0.94167241634979
H            5.98644403780069       -0.26751789492925       -3.29780204781010
H            7.33695584370840        0.18770173967489       -1.28772463884183
C            2.57522959685427        0.84879691452097        3.12719833760858
C            1.37398153385357        0.61283965572143        2.69242909380929
H            3.13278941760816        1.72811925583275        2.84041075307733
H            3.05708582510049        0.18068872153787        3.82311945656538
C            0.20644022488884        0.35212950551572        2.20749074069108
H           -0.67120343832927        0.70326011781570        2.73223822997412
Cl          -0.67480983747295       -1.93646921134208       -1.17012823483221
Cl          -0.05969844603258       -2.56745754585847        1.83234623384354
O           -1.92403741016844       -0.42578988556492        1.01058755163176
O           -0.21269633430368        0.69128595858067       -0.55811483054285
C           -3.02322463253063        0.62044391046255       -0.71950392270256
C           -2.25699384559926        1.82122516089616       -0.47656731324822
C           -0.18410087905914        2.92947882164417       -0.08146311556627
C           -3.55421458806940       -1.61817652598041       -0.10914008321988
C           -4.53162170502553       -1.65850734635033       -1.08233826530151
C           -4.03367536543455        0.59652723619073       -1.68569803014696
C           -4.77467567644187       -0.54306886532023       -1.88469256483595
C           -2.91098485566717        3.05788396466019       -0.41489713781064
C           -2.21870507747041        4.21130779831591       -0.14878413721401
C           -0.83045850950288        4.13679022163635        0.03037155266170
H           -4.17987523449634        1.47086258516958       -2.29929749317790
H           -5.53029022298512       -0.57928063289812       -2.65284729604429
H           -3.98242464101389        3.07103647018582       -0.53517926375071
H           -2.72815606822512        5.15761684452338       -0.07147968363173
H           -0.25674997077148        5.02390550561482        0.23984381277972
C            1.29232358076562        2.78099393031241        0.00973927165622
N           -2.83365880196195       -0.49209923546586        0.04644347830260
N           -0.89062253189054        1.80252543465881       -0.33409998466017
C           -3.27557628210020       -2.74719253495126        0.80667766386216
H           -5.09989315072134       -2.56404571910456       -1.21285899285550
H           -3.10870845104218       -2.38280895416658        1.81873967662916
H           -4.08644562816653       -3.46825881388019        0.78827406982334
H           -2.35003920434167       -3.24088528327299        0.50883420545064
H            1.54305593074379        2.08186347054139        0.80784298872618
H            1.67837118740963        2.35585464890955       -0.91678468619946
H            1.76362904765925        3.74063251716136        0.19617479301446
