51
 energy: -86.704550404882 gnorm: 0.000481491720 xtb: 6.5.1 (b24c23e)
Si           0.16261493935010       -0.74700457610564        0.69179617449282
O           -1.00839087413775       -0.91938283792910       -0.40951711979957
C           -2.31343490241430       -1.43328397116752       -0.32613854861994
C           -3.29984990100347       -0.35911456182456       -0.70992813471079
H           -2.51176469550754       -1.76756052809216        0.69914550456210
C           -2.95895801850919        0.58677520662706       -1.66888062104049
C           -4.55149680307975       -0.30131600520212       -0.11174633970535
C           -3.85530546874427        1.58064835249324       -2.02037156923699
H           -1.97929640269239        0.54248070156334       -2.12123497411056
C           -5.44969506700624        0.68853244449580       -0.46979484045825
H           -4.81482223152085       -1.02903753945470        0.64167831140212
C           -5.10327233544329        1.63193694273210       -1.42286437938278
H           -3.57949467759416        2.31568629820072       -2.76277750326316
H           -6.42079521612078        0.72810927763303        0.00118328618352
H           -5.80372973099242        2.40703899002756       -1.69723051026201
C           -2.42268927746053       -2.63788087114266       -1.28182361848238
C           -1.49782909828251       -3.67549186828172       -0.87921482766801
H           -3.44700651698960       -3.01792652935658       -1.26316954107570
H           -2.18199447031661       -2.30556120669065       -2.29504784050517
C           -0.70113453790231       -4.48934691803325       -0.51280924654383
H           -0.01537914202183       -5.21577390778307       -0.19363177897976
Cl          -1.04659570753661       -1.07606420735998        2.46646407060013
Cl           1.52217761650101       -2.19972128243562        1.27552781501426
O            1.15135826796227       -0.28543325699428       -0.75982945574382
O            0.50054306801114        0.76541197846756        1.39457665705875
C            2.92641721287077        1.10894054192118       -0.13080861602900
C            2.02630362608732        2.15382997240117        0.20501090468687
C           -0.20439342975080        2.87106426288033        0.76963478190575
C            3.30442421584873       -1.03759579343793       -1.12887468084102
C            4.66472652825844       -0.85742414477489       -1.04896403821373
C            4.32541315021758        1.28543417040834       -0.04849294310227
C            5.18404536854859        0.31363005181644       -0.47429011445516
C            2.36110028983426        3.50596028450631       -0.03393012196932
C            1.42633935348413        4.49389645953837        0.06884321382400
C            0.10181454811306        4.15994211223004        0.42679048272167
H            4.69707832203599        2.18963048445087        0.40419348843055
H            6.25033085363138        0.44172926115811       -0.37999922767534
H            3.35838422451301        3.72955624041894       -0.37487479870287
H            1.68079597077154        5.51838546001203       -0.14846276641230
H           -0.66462473610876        4.91516098306687        0.45409833083503
C           -1.54718741579648        2.44205471696482        1.24120805538693
N            2.47712158568267       -0.08858917220646       -0.64674109490372
N            0.76023964432102        1.92139791600883        0.71490818787297
C            2.68609121669453       -2.22228390086021       -1.77874263801573
H            5.32172377404347       -1.62129349043460       -1.42748453741817
H            1.87520256772320       -1.90453374997816       -2.43136838585633
H            3.43050063826945       -2.77438532441473       -2.34372711916030
H            2.24987657353073       -2.87256233879868       -1.02213935425367
H           -1.95807467326614        1.69152007260772        0.56513749326024
H           -1.47215907307508        1.97285554340427        2.22162649311909
H           -2.22454915302906        3.28854425671887        1.29078203524667
