51
 energy: -86.708848396029 gnorm: 0.000440498004 xtb: 6.5.1 (b24c23e)
Si           0.13665126867454       -0.85198515489481       -0.31405870718155
O            1.07709485855525        0.43286907006947        0.04557155045434
C            2.12776628922479        0.56080499544549        0.97099899826689
C            3.42898762095637        0.00525885971809        0.44901803225747
H            1.85936300205368        0.03121641293228        1.89272481355076
C            3.65476372049666       -0.15956162763810       -0.90862572863166
C            4.43304363304728       -0.33015207604127        1.34898157254654
C            4.86331071463736       -0.65852216667877       -1.36226021507595
H            2.87460321287393        0.07943570675143       -1.61554627163372
C            5.64291069808856       -0.82038412030719        0.89554948324282
H            4.25652544914112       -0.21875509480802        2.40929700563433
C            5.86127063492846       -0.98562183290973       -0.46233390225055
H            5.02108361847818       -0.79403424391093       -2.42196906940084
H            6.41496393413987       -1.08292803832676        1.60381541432863
H            6.80403106823844       -1.37605400623726       -0.81598218771291
C            2.27667189625578        2.06369938439536        1.28441173970977
C            1.06116577868036        2.57645195308455        1.87767044606506
H            3.11312749594546        2.20104331878113        1.97326052291530
H            2.49009182334054        2.60351913274185        0.35800041809530
C            0.02840949126101        2.94296779910702        2.35821464226728
H           -0.85967373146602        3.28936979872010        2.79481925834620
Cl           0.35014242370663       -1.98895172228455       -2.01414474905407
Cl           1.13771833110457       -2.27663091587668        0.96109838816047
O           -1.20025267063156       -1.04302394306880        0.72531122363847
O           -0.86613830402307        0.22084486560412       -1.38459105530576
C           -3.12813993469456        0.25092802859982        0.20615822319390
C           -2.40679210746090        1.43468175644984       -0.09784425997306
C           -0.64842827212396        2.52131893642448       -1.30754327562351
C           -3.19107798385689       -2.15390606800521        0.35711910895625
C           -4.55951782982376       -2.13716820346508        0.34658360894007
C           -4.53744971336496        0.25875918877972        0.30442364494886
C           -5.24666126397563       -0.90442439322237        0.37482831051031
C           -2.85172537766172        2.70381837108064        0.33446588409063
C           -2.19425342535671        3.84330323416022       -0.02794814062180
C           -1.07921374122590        3.75248437565278       -0.87685582437285
H           -5.04612771799239        1.20677675998424        0.24551282936586
H           -6.32352274014926       -0.89165432808771        0.41750183379831
H           -3.69956706770999        2.74426381386621        0.99829887097158
H           -2.52188368742937        4.80686999680056        0.32807787670527
H           -0.55879477166503        4.63907049957975       -1.19556094133225
C            0.48386036259502        2.34399147833029       -2.25328751940457
N           -2.51340709269617       -0.98017547841104        0.36062221050834
N           -1.29065388888627        1.40824064811115       -0.90574833250845
C           -2.38303486512845       -3.40016781364123        0.39626139931999
H           -5.10396296938414       -3.06559124389706        0.33306508316046
H           -1.70134987674313       -3.38603812863697        1.24596249047405
H           -3.02718442301729       -4.27141545642439        0.45591563256072
H           -1.76287145763215       -3.46855618001750       -0.49812282734402
H            0.87007729807191        3.30564245361051       -2.57605971520595
H            1.27218318883206        1.77148803368646       -1.76934209092499
H            0.15541310077054        1.76496436432238       -3.11574570342654
