51
 energy: -86.701412038459 gnorm: 0.000478423607 xtb: 6.5.1 (b24c23e)
Si           0.04178236331338       -0.15285298929412        0.44577116963904
O            1.56116867606739       -0.55815520615742        0.80399139766754
C            2.54046712310274       -1.38834898015755        0.23531062902687
C            3.69509173588004       -0.55807059824906       -0.26565652193245
H            2.10863817555478       -1.96070440115982       -0.59343760993057
C            3.95718986890178        0.69037489768208        0.28055373127932
C            4.52346226711866       -1.05371171854088       -1.26454226133722
C            5.03222578202830        1.43618543272567       -0.17021938551211
H            3.30731119068070        1.07211690338140        1.05307991524303
C            5.60219732733568       -0.31032517156393       -1.70807017935534
H            4.31717457329435       -2.02245007629154       -1.69742099782249
C            5.85862414054647        0.93653143724618       -1.16194307288780
H            5.22688701880448        2.40891946183493        0.25755171426073
H            6.24213246784867       -0.70288647912810       -2.48490195174848
H            6.69993396233321        1.51718982669420       -1.51122367910237
C            3.02182022679550       -2.36766626805615        1.32467849106455
C            1.95692404776277       -3.26914110171880        1.70602395925629
H            3.87313115328509       -2.93712004301570        0.94346708452345
H            3.33888363805599       -1.78728150987094        2.19501090694379
C            1.04173294621106       -3.98564666522389        1.99022879698688
H            0.26367957663778       -4.63425074148088        2.26185083998042
Cl           0.11109014684000        1.09523364794651        2.18810105178788
Cl          -0.13184260696380       -1.58444754460090       -1.24357914425079
O           -0.31071682526961        1.07958162169364       -0.67614750198872
O           -1.53738640234677       -0.53851161577579        0.99076346766982
C           -2.59980702959739        1.63574184278043       -0.45188354869282
C           -3.06635008014547        0.29248734028131       -0.58737923997846
C           -3.00011160472020       -2.04223274068101        0.00111422666348
C           -0.85481118239768        3.27684608880003       -0.18328695938757
C           -1.78209983752564        4.28142961704183       -0.09001893339738
C           -3.53830984947050        2.68924063700294       -0.41300148308228
C           -3.15144714481092        3.98526473718534       -0.22647242957661
C           -4.18325790633856        0.01315633814701       -1.40345498969322
C           -4.67124218203503       -1.25563861752966       -1.53456592967548
C           -4.06948654534800       -2.30464320945965       -0.81542777861890
H           -4.58411940865027        2.43421675018446       -0.46395038948627
H           -3.88306366569870        4.77398207652310       -0.16120927713272
H           -4.60480443717161        0.82258902294451       -1.97659873791105
H           -5.50006777754719       -1.46046018033749       -2.19258389943819
H           -4.43560458671507       -3.31280748914313       -0.90475028959768
C           -2.31951448194742       -3.07892699950924        0.81898407857494
N           -1.26778626294776        2.00677106306268       -0.39149000012753
N           -2.53760920839669       -0.77952611665844        0.10345223506831
C            0.60838158008567        3.51101440286266       -0.08876070430745
H           -1.45443796804203        5.29156760942124        0.08456808713556
H            1.12524907749628        3.03986854753500       -0.92286198783136
H            0.82285833972246        4.57450394336187       -0.07171674963547
H            0.97577946388285        3.04886437499138        0.82859199564011
H           -1.30286080091092       -3.21809182476121        0.44939710097104
H           -2.24629856145605       -2.74969626338779        1.85466749829161
H           -2.85779551312866       -4.01979006957610        0.76291425576347
