51
 energy: -86.705054033149 gnorm: 0.000675843256 xtb: 6.5.1 (b24c23e)
Si          -0.03559693001816       -0.42457862815163        1.24751752529604
O            0.66257683105759       -1.64232855942066        0.43018556450888
C            1.29322878076891       -1.69104037112127       -0.82468004766010
C            2.60434725062669       -0.95027925505938       -0.83536964968414
H            0.62538133834424       -1.25646485593187       -1.57986357214928
C            3.36794917508879       -0.84649846721778        0.31822524958512
C            3.07368483649646       -0.38805361330127       -2.01633081505849
C            4.57694309249944       -0.17336370587806        0.29604571395204
H            3.00308740001566       -1.28471261789849        1.23430268678958
C            4.28833526431291        0.27491676885455       -2.04018495395755
H            2.48094945373998       -0.46729048657971       -2.91741361277556
C            5.04013796048990        0.38696231023193       -0.88214737063864
H            5.15950998919077       -0.08962553185082        1.20104714389326
H            4.64468918625036        0.70994453611685       -2.96269331837478
H            5.98466077115923        0.91003467667670       -0.90012990715535
C            1.53694634524842       -3.17894092332916       -1.15104827586176
C            0.29196640633869       -3.86533826915423       -1.41363752546988
H            2.19027013966773       -3.25356960113982       -2.02423845525693
H            2.03191813523934       -3.63832188303680       -0.29237550884457
C           -0.76065684526040       -4.38981283241024       -1.63623758510419
H           -1.66875638953805       -4.88170501794624       -1.81907096778108
Cl           0.80053670472965        1.04368081464790        2.45456219420154
Cl          -0.34105010822108       -1.74548815316637        2.88357340147024
O            0.15597634481805        0.65530771715676       -0.25602366857941
O           -1.72175506067266       -0.18697061219795        1.16544387280434
C           -1.64742353949820        2.13379705391958       -0.48530621245915
C           -2.55313313155918        1.05556573401537       -0.67451253414209
C           -3.15580990909671       -1.25009643427118       -0.30825254518186
C            0.59566876130459        2.93399983337694       -0.22629506584450
C            0.15765129945236        4.23487574312195       -0.30329115968594
C           -2.08589217221062        3.47200087563221       -0.58130640452027
C           -1.20892266754598        4.51126634362048       -0.46583059047231
C           -3.61240635907023        1.14999995775113       -1.60304708187877
C           -4.37930028884947        0.06471229566172       -1.91192034668800
C           -4.11646743766796       -1.17022471588410       -1.28081282508172
H           -3.14216084093260        3.65086731028277       -0.69540148352101
H           -1.55393902960437        5.53181649982581       -0.50397654338909
H           -3.75361988959547        2.08629909157038       -2.11742808272547
H           -5.16376625961939        0.13524751507687       -2.64756686557580
H           -4.68123877711169       -2.04794815913638       -1.54373904145330
C           -2.86628018300704       -2.48870350369027        0.45791252147974
N           -0.29699942374729        1.92393228320492       -0.28351397515311
N           -2.43940668408539       -0.14455684573750        0.00572830174195
C            2.03827782448371        2.59115682931678       -0.13662158311462
H            0.87542052077455        5.03460928414875       -0.24222368507107
H            2.27792370833331        1.79769723432970       -0.84167864397574
H            2.64615034704436        3.46622926380140       -0.34305073697084
H            2.27183305580222        2.21858385456744        0.85962127859521
H           -1.85896573975518       -2.84249776048618        0.23135837244648
H           -2.89342191650804       -2.29020289466738        1.52855369334095
H           -3.58308734010422       -3.26507612824502        0.21028312115384
