51
 energy: -86.705193860352 gnorm: 0.000891071015 xtb: 6.5.1 (b24c23e)
Si          -0.20968280105697        0.10560374911828        0.56935753001977
O           -1.05609871416825        0.87464096982298       -0.57931058129838
C           -2.36349078298063        1.39645012845974       -0.48101154230925
C           -3.36207627417976        0.27481736344135       -0.35406263503533
H           -2.42383687379218        2.03982432873515        0.40567607478705
C           -3.24794264507907       -0.83906906332329       -1.17491347950376
C           -4.37338255017678        0.32273874976457        0.59399640965897
C           -4.13240639175616       -1.89429908090347       -1.04918064116333
H           -2.44610338876391       -0.87804654018878       -1.89677211107448
C           -5.26297771331654       -0.73073290809923        0.71443011080240
H           -4.45130475386355        1.17899207861631        1.24752774829535
C           -5.14405018347928       -1.84000858373702       -0.10527421084129
H           -4.03137993168672       -2.76140415961281       -1.68603646713505
H           -6.04446680155399       -0.68985718350259        1.45881007556377
H           -5.83383333852943       -2.66502856478238       -0.00323772468786
C           -2.63263180214728        2.23089916923551       -1.74457605534579
C           -1.78449959813677        3.40164752913380       -1.78466061709938
H           -3.68190788793518        2.53719233753907       -1.74691970326587
H           -2.43989392300168        1.61107874110943       -2.62334710223971
C           -1.06648046289807        4.35916839241252       -1.78333731155355
H           -0.45221868707658        5.20930629829004       -1.80093628224378
Cl          -0.69730899064960       -1.74904112960812        1.37937485396552
Cl          -1.05654459240682        1.13549561306779        2.28455479843847
O            0.66502837540326       -0.66099642411070       -0.83509925069198
O            1.25810418255482        0.75340236524862        1.11788584860818
C            2.82679504583850       -1.29473079052712       -0.16993266911327
C            3.22088183619526        0.06127021490405       -0.03380144902391
C            2.60201158438426        2.37965059226948        0.18168201835992
C            1.21998384161715       -2.90196961144085       -0.92699702841742
C            2.11428543622631       -3.92458676536795       -0.72040161939712
C            3.73813932150726       -2.35199768721653        0.04870102382831
C            3.38630060191807       -3.64785173852986       -0.19418308305236
C            4.53400681967375        0.47632987814604       -0.35140520768113
C            4.84853118836574        1.79974748886331       -0.45348624377377
C            3.84483494391695        2.76930226614524       -0.23878931347113
H            4.70506236694698       -2.11079871797961        0.45798839230940
H            4.07602889120951       -4.45233983495203        0.00439020753266
H            5.26457506681492       -0.28009095074044       -0.58586406955196
H            5.84393093667671        2.10977477673764       -0.72724851712013
H            4.05675856389300        3.81490421925558       -0.38195404548791
C            1.50625355185466        3.32753713639743        0.51020798246877
N            1.56704887911292       -1.63588560498285       -0.61748929036490
N            2.34075621701991        1.06018206637402        0.34216339596901
C           -0.11763391269006       -3.11886513710133       -1.53824679816407
H            1.82720543847596       -4.93341799914923       -0.96189806041225
H           -0.29625880372204       -2.36359826626401       -2.30124429048921
H           -0.17613205999502       -4.11161319493885       -1.97365104199226
H           -0.89311457274783       -3.01068131853519       -0.78117831748084
H            0.65454328312898        3.15363516025788       -0.15015841075957
H            1.15347007375194        3.16212106643062        1.52751044254977
H            1.84530399128502        4.35307357581230        0.40359225809984
