51
 energy: -86.709437788062 gnorm: 0.000653781784 xtb: 6.5.1 (b24c23e)
Si          -0.05689001562232       -1.39034964250923        0.30629518367134
O           -1.46345387122980       -0.56430802028967        0.38683738802891
C           -2.51721553968964       -0.47808978495505       -0.54904026453274
C           -2.11065121237828        0.43967472681736       -1.67366316142313
H           -2.72696653777335       -1.47843145026417       -0.94298376382267
C           -1.58236874273620        1.68987345078620       -1.37858022373857
C           -2.21082417107150        0.03947163710457       -2.99784094765319
C           -1.15503580331299        2.52776539834026       -2.39160298399123
H           -1.49570337366024        2.00217769057301       -0.34769933892722
C           -1.79186110666077        0.88262026671403       -4.01222993554209
H           -2.60104588955024       -0.93970121627664       -3.23026185831608
C           -1.26163131780693        2.12576812500733       -3.71216765741759
H           -0.73820598208332        3.49487179971804       -2.14838042200455
H           -1.87016051009532        0.56318187206808       -5.04091725792596
H           -0.92730420363864        2.77878029509612       -4.50520825970656
C           -3.76320950912628        0.05454527292119        0.17942369759462
C           -4.14163868366557       -0.83590180752098        1.25568441378109
H           -4.58026763356847        0.13558413788106       -0.54176143251505
H           -3.55018055402103        1.04767507380307        0.58452605812723
C           -4.39582422859427       -1.59207489264129        2.14762846631456
H           -4.64120353447864       -2.25422522773012        2.92292233876125
Cl           0.40654809847821       -2.97998429593063        1.52087542032233
Cl          -0.55663548451082       -2.61926169484420       -1.38893137218453
O            1.10873963441718       -0.68809541468505       -0.72185807226457
O            0.57970402794966       -0.39106931894307        1.68657165367913
C            2.36676696317870        1.10706999056550        0.20376311635882
C            1.26715674445073        1.70021627708001        0.87664530134099
C           -0.58996801499191        1.47765950427920        2.37740271399943
C            3.41047088696365       -0.86446472202103       -0.70769457986882
C            4.63324430671849       -0.25022323617201       -0.68266030248693
C            3.61333054610315        1.76551453911174        0.11824510413975
C            4.72799148197176        1.10954627914627       -0.31620998381426
C            1.06141362792442        3.09771027866097        0.87351895216966
C            0.03950503520279        3.66064840614016        1.58216029507093
C           -0.79360995799947        2.83760108878762        2.35961451446350
H            3.67948523918357        2.77917522982682        0.47791496083259
H            5.68294958281342        1.60807692261470       -0.34884687130616
H            1.70310529284227        3.70344688255331        0.25556281751991
H           -0.13281879479027        4.72460015878536        1.55063321774629
H           -1.58936438239302        3.26166763707222        2.94813074912560
C           -1.38922889146160        0.54693939616565        3.21390430236968
N            2.30992119069810       -0.16352739556514       -0.34231254423220
N            0.39954927021928        0.94312441006095        1.63599368024387
C            3.20002679494891       -2.26831230397525       -1.14628208162905
H            5.51361553674790       -0.80358176529738       -0.96040824170279
H            2.48454452753421       -2.30666295375627       -1.96694143599170
H            4.13819354387775       -2.71688218615774       -1.45640021105208
H            2.77029226777289       -2.85108605045962       -0.33085441192611
H           -1.96134443196127       -0.12987772566101        2.57972567416582
H           -0.72157152158145       -0.07263416062512        3.81083148866017
H           -2.06576269954282        1.09671351860032        3.86058910748709
