51
 energy: -86.701000541467 gnorm: 0.000549055749 xtb: 6.5.1 (b24c23e)
Si           0.01003367804405       -0.36230591987991        0.30179022177045
O            1.60619348237087       -0.13275593611941       -0.01507792756269
C            2.66169012151902       -1.03312662467506       -0.19417835274000
C            3.88949006348382       -0.25976882223151       -0.60565546835648
H            2.39010115189734       -1.75432204026910       -0.97956785540057
C            4.17823803755902        0.95165561280853        0.00853029179935
C            4.75179563151932       -0.75423256362505       -1.57408096398873
C            5.31058712445945        1.66207973012665       -0.34632466211075
H            3.49994992985408        1.33330388485995        0.75641934208537
C            5.88799152096223       -0.04565672380143       -1.92427062952182
H            4.52980270898174       -1.69540797770402       -2.05701825855363
C            6.16897444639133        1.16402303360751       -1.31221873104376
H            5.52601729465689        2.60600969108085        0.13334393108494
H            6.55314625578749       -0.43658014556725       -2.68060509270974
H            7.05381231130759        1.71830366167108       -1.58953661065263
C            2.96343813860953       -1.81193107256660        1.10596317890221
C            1.93122601900551       -2.78125678945457        1.39396897266427
H            3.92460779103619       -2.32106101293792        0.99576920374393
H            3.02796440199287       -1.09566902110381        1.92888595234634
C            1.05196483234482       -3.56737260423901        1.59730341498743
H            0.29873929871728       -4.26841592616747        1.79972148817952
Cl           0.23285238969629       -0.05468729686093        2.36930304060099
Cl          -0.23403895654033       -1.83453416284335       -1.21049058956402
O           -0.41792386710986        1.06368554509971       -0.50816330549753
O           -1.70751382392782       -0.63019406160690        0.84281820376982
C           -2.69570646635506        1.68825298848135       -0.30917242452808
C           -3.20355105626173        0.40039421627022       -0.63546460867309
C           -3.26507000289876       -1.96428121269406       -0.23609108445909
C           -0.90643384985710        3.08783980940903        0.49789631906054
C           -1.77875771292111        4.12492019629646        0.68981377237391
C           -3.56347122230885        2.79627921846407       -0.19912069450456
C           -3.12585571048167        3.99230930791164        0.29115093411934
C           -4.29819633255134        0.24954446042223       -1.51371117691190
C           -4.83964594483440       -0.97879768230437       -1.76317600601693
C           -4.32580613833460       -2.10384639118270       -1.09757833504949
H           -4.60345107863553        2.65189301263221       -0.44106934981518
H           -3.80370105300483        4.82246216578091        0.40502244372780
H           -4.66406289457259        1.12588532084686       -2.02271777593234
H           -5.65435453114602       -1.09010747583488       -2.46038807158935
H           -4.75393336990567       -3.07867697479394       -1.25593232266409
C           -2.70145334191911       -3.10037039499983        0.53930179712715
N           -1.35844849907820        1.93261706249351       -0.04584107539048
N           -2.71829442938490       -0.74732350397477       -0.04392453436284
C            0.54034039098084        3.15788994973379        0.82880747398592
H           -1.42755581949411        5.04115578265812        1.13228342271511
H            1.13894670660505        2.86847371567426       -0.03354302280848
H            0.81020466024151        4.15830845973805        1.15122014200969
H            0.76302914078131        2.44441691099362        1.62349974779920
H           -1.74280504770788       -3.38877761995395        0.10823692905064
H           -2.52036421763218       -2.79270971457262        1.56801696894430
H           -3.37854716194181       -3.94863106509401        0.51403073756045
