51
 energy: -86.704225843890 gnorm: 0.000909761210 xtb: 6.5.1 (b24c23e)
Si           0.14195709016583       -0.29975770309446        1.16620999977081
O            1.18756027377265       -1.08681160354446        0.21210919340645
C            1.87950537609706       -0.72351473650407       -0.95741903910995
C            3.31985621562831       -0.40475413819077       -0.64381083558540
H            1.39805819760778        0.14789939041226       -1.41057771926361
C            3.93947958230138       -0.95385444676716        0.46949032350353
C            4.04247788248252        0.43227041624842       -1.48485797394208
C            5.26584490753175       -0.66563286335046        0.73959519265599
H            3.37043067219424       -1.59348565417667        1.12636828212138
C            5.36958295516624        0.71419859541687       -1.21677002937937
H            3.56089491116103        0.86458004992979       -2.35171986931907
C            5.98361175254248        0.16549734076234       -0.10304218005461
H            5.73922240803997       -1.09264039148682        1.61112368024381
H            5.92437841561807        1.36665313898135       -1.87535360966159
H            7.01901042734620        0.38933948409878        0.10776162110141
C            1.78896480039888       -1.90626649053761       -1.94385571347222
C            0.44407894048814       -2.02198062616362       -2.46261048655489
H            2.48988583490649       -1.74504957671344       -2.76656316010855
H            2.06598278527963       -2.82051407366224       -1.41351479561991
C           -0.68489925572766       -2.05704810629701       -2.85893108629157
H           -1.66767672258947       -2.11488386480036       -3.22071333782636
Cl           0.55061000675647        1.26426885274611        2.46748692514798
Cl           0.41992790075130       -1.78333730664052        2.66495095572561
O           -0.21201679703959        0.88768349142023       -0.21769244526290
O           -1.51339998360486       -0.69606606886611        1.19567595214238
C           -2.40906085599940        1.69400531244918       -0.12152535228324
C           -2.93573018489003        0.39790766298232       -0.36536716558054
C           -2.70482309334582       -2.00056611623592       -0.28475133151617
C           -0.52269080594188        3.16700230828652        0.02263875235565
C           -1.35577957858980        4.25400583372780        0.13572605245620
C           -3.25773462603418        2.81776149548566       -0.01257512760165
C           -2.74861063227514        4.07453734634671        0.13990361471293
C           -4.08932913217338        0.22287942348387       -1.16188389087110
C           -4.50368979125624       -1.01911673564065       -1.54499168733511
C           -3.76941265078149       -2.15187310384152       -1.13221134739668
H           -4.32184020840869        2.64977339733803       -0.00170884724814
H           -3.40200285651078        4.92409792786234        0.25580568374417
H           -4.59654090441756        1.10291582601315       -1.52136147916133
H           -5.36645411289130       -1.14050881218308       -2.17984256211612
H           -4.05035723462957       -3.13697656975245       -1.46371475347649
C           -1.91637243150360       -3.13645243997566        0.25662941594106
N           -1.04948082654082        1.92842871538458       -0.06651184096262
N           -2.34966148792814       -0.75813654434324        0.11973441555956
C            0.95648211171122        3.30377976869342       -0.05608013173440
H           -0.92892862055523        5.23858518159707        0.21858670571774
H            1.35172699141721        2.66765481385474       -0.84560528890807
H            1.22784851228944        4.33767400210353       -0.24431728545625
H            1.40840081114629        2.97834713784921        0.88014457425808
H           -0.87243418980444       -3.03022469706658       -0.03683391941473
H           -1.93612756320974       -3.12839044736657        1.34602868831981
H           -2.30237921614473       -4.08114579626952       -0.11208773637151
