51
 energy: -86.705767078488 gnorm: 0.000566356071 xtb: 6.5.1 (b24c23e)
Si          -0.13399629163176       -0.33890862243110        1.15139264098474
O           -1.05717450972784        0.93880536577033        0.72662825149398
C           -2.44029331237390        1.13022747883187        0.50778151394849
C           -2.91847437949130        0.25350433747062       -0.62770631857961
H           -2.50399085982895        2.18113865158873        0.17598211502765
C           -2.17350579765566        0.27634441717650       -1.80223821755499
C           -4.03279581994493       -0.56851518862874       -0.55532193809911
C           -2.52331566963771       -0.51638821922035       -2.87811538940863
H           -1.30474244863535        0.91819420102109       -1.86228106971020
C           -4.38768135944120       -1.35657505816726       -1.63702802146694
H           -4.62295407464285       -0.61885416417311        0.34507059903132
C           -3.63560721868278       -1.33685947398503       -2.79768598292877
H           -1.92818535756140       -0.49318322670303       -3.77993449092795
H           -5.25322123564468       -1.99855753778915       -1.56531598675962
H           -3.91233104791253       -1.95993657756781       -3.63559594639068
C           -3.22845266616639        0.99564646953852        1.81736933523429
C           -2.65934977214005        1.86823426434533        2.82177269842643
H           -4.27028803140751        1.27246309457599        1.64082737240650
H           -3.17335309305497       -0.03686657993459        2.16835436459925
C           -2.13739145924420        2.59306202230751        3.61839024760097
H           -1.70323069725005        3.21552833762104        4.34236901676957
Cl           0.57027191275021       -0.65929091095867        3.05361210328219
Cl          -1.66831234458480       -1.84451081306192        1.28246158250387
O            0.42749481231749       -1.26427869038387       -0.16699015226044
O            1.32960390073971        0.73911697068101        0.98473522863339
C            2.25440826287923       -0.33253102417196       -1.37975014097563
C            1.80369841352643        1.01054607603430       -1.29263348489315
C            1.05741964235713        2.84028620555489        0.06424827662757
C            2.32431463664489       -2.54925006831824       -0.43842217983114
C            3.44945455520132       -2.83988233134609       -1.16109995477278
C            3.34354404954369       -0.68561419119318       -2.20667495677251
C            3.93506356593995       -1.91101547344146       -2.10706643416251
C            1.84932635931657        1.88556456471042       -2.40033764190108
C            1.48147862659802        3.19460499922603       -2.27766452105883
C            1.09544249074784        3.68600288510769       -1.01935355814413
H            3.74712410860158        0.06604049593877       -2.86498691407806
H            4.78757398926046       -2.16260805895709       -2.71656362499066
H            2.13463016185293        1.47993854539200       -3.35691488505307
H            1.48726900540175        3.85044360982991       -3.13349387468988
H            0.83041020042941        4.72171400520350       -0.89261696069999
C            0.71291741376759        3.29226665901927        1.43671907804912
N            1.71480208380203       -1.35160293906572       -0.61299097893888
N            1.38251583178373        1.54327747438621       -0.09302338813057
C            1.69119657239484       -3.49185888110954        0.52062397955343
H            3.94671372691477       -3.78362646937368       -1.01738676738249
H            0.66483658415567       -3.70294951740487        0.22141305804212
H            2.25376974239064       -4.41833107856213        0.57370970204013
H            1.64115835167617       -3.03796744387065        1.51085839378983
H            0.61867219276497        4.37316340723951        1.46981366280843
H           -0.22120312604257        2.83354010292713        1.76143270622123
H            1.48187837895954        2.96126389833155        2.13350685349207
