51
 energy: -86.700528406903 gnorm: 0.000594611649 xtb: 6.5.1 (b24c23e)
Si          -0.00396859589689       -0.37771072799048        0.05909717272765
O            1.52215469463404       -0.86994691056926       -0.14723708406697
C            2.66283785058438       -0.91939465777014        0.66808668530433
C            3.85201689444978       -0.36115697923983       -0.07073750422522
H            2.48874558613279       -0.34257789278464        1.58400123272338
C            3.90635713889411       -0.40218085912826       -1.45685476814850
C            4.92208837880334        0.16921030097230        0.63863165671027
C            5.01524569957453        0.08585063191258       -2.12549731634457
H            3.06855130344183       -0.80848083827471       -2.00211251013719
C            6.03316446393729        0.64917645437365       -0.03097577267422
H            4.87981136040579        0.20790679095541        1.71803838680549
C            6.08177761000316        0.60885825316823       -1.41464733939776
H            5.04773030864651        0.05438307232890       -3.20481486387387
H            6.86196018888361        1.05903636023054        0.52780935668411
H            6.94884415145001        0.98662876431174       -1.93660042532177
C            2.92178082780686       -2.39470857232025        1.04191377235090
C            1.80984587782607       -2.92858291067007        1.79660547292010
H            3.84056103251947       -2.46021408887722        1.62967504405128
H            3.04369024636146       -2.96875796461976        0.11949150364787
C            0.85119446608114       -3.32007987579458        2.39599459079030
H            0.03865876820326       -3.69004298086991        2.94609299743517
Cl           0.31101956651928        0.49733879262948        2.03097792444219
Cl          -0.43519018281762       -1.51541208771348       -1.73109523419183
O           -0.39231167944060        1.06662106748810       -0.75185865526871
O           -1.54786078852951       -0.74481248317531        0.74182244504049
C           -2.64457548193485        1.63137577880716       -0.26486162203863
C           -3.17460194135741        0.33729370153602       -0.55286397500117
C           -3.16333758588665       -2.05476997831718       -0.28651295255936
C           -0.82183798256614        3.15693240159869        0.13928025404479
C           -1.69904797758199        4.16122536359200        0.45291012212720
C           -3.53447885966646        2.69641765575422       -0.00468688730366
C           -3.08561709394109        3.93407148022297        0.35599602572044
C           -4.36305346344216        0.20914028950299       -1.30265665613057
C           -4.91753414393543       -1.01340084195324       -1.55399591912909
C           -4.31012076606681       -2.16807316802410       -1.02936745596276
H           -4.59111283024258        2.48607951090243       -0.02870557647641
H           -3.77934525333068        4.72583158724505        0.58718482713595
H           -4.79132806446782        1.10148742969248       -1.72875462498092
H           -5.80498519637664       -1.09973916001278       -2.15972986011202
H           -4.72925857426923       -3.14197104005998       -1.21397574296760
C           -2.46431338955453       -3.21514680182838        0.32223826939960
N           -1.29627323984415        1.94772593589932       -0.23821731344396
N           -2.63845220651480       -0.83399650820841       -0.05979683905216
C            0.65362421034098        3.32816236471255        0.16488465634916
H           -1.32053667059212        5.11950808488260        0.76401799910267
H            1.08634349757373        3.02864467233806       -0.78826545046920
H            0.91339243950322        4.35913408961436        0.38159761891996
H            1.07484102768246        2.67652479887657        0.93147015154298
H           -1.51321395241027       -3.36572137743744       -0.18869678007983
H           -2.24498215512305       -3.01178546396142        1.36873130084611
H           -3.06755051445774       -4.11285446394333        0.23422066253403
