51
 energy: -86.708532870540 gnorm: 0.000963726571 xtb: 6.5.1 (b24c23e)
Si           0.44640097620113       -1.29767694711775        0.39692223527923
O           -1.07112144677755       -0.80421259723482        0.73263529720432
C           -2.33023978164796       -1.32150331947871        0.36449297459582
C           -2.94522554214200       -0.42992409785801       -0.68404376963201
H           -2.19968633430797       -2.33191759692169       -0.03705124762665
C           -2.95751059869071        0.94660574549065       -0.49929656735816
C           -3.48639015997032       -0.96406045380697       -1.84501950203811
C           -3.50057913217128        1.77853219223437       -1.46151930638714
H           -2.52800891039885        1.36584299086616        0.39894102128219
C           -4.03944668407381       -0.13175628313454       -2.80313051534418
H           -3.46379293771342       -2.03260546328937       -1.99950415805422
C           -4.04700953809748        1.23995516378361       -2.61436763235475
H           -3.49844276886625        2.84849569986402       -1.30905635373076
H           -4.45949360345840       -0.55510121628371       -3.70385232063078
H           -4.47427960898685        1.88826241419415       -3.36549391984245
C           -3.22028106731239       -1.39353956611581        1.62065474127615
C           -2.55494949158753       -2.16757430350276        2.64758782135859
H           -4.17017060887350       -1.86141955621775        1.35118222744162
H           -3.41739987247259       -0.38231478616657        1.98864984103931
C           -1.92533379858908       -2.78634364401721        3.45557445582097
H           -1.39882805128220       -3.33902967306503        4.17482947542211
Cl           1.60171083189199       -2.40522906007012        1.68496469158275
Cl          -0.05722116664054       -2.97016618990274       -0.86101933235537
O            1.08936503858346       -0.61890073191091       -1.02808546131705
O            1.08492636738076        0.12044818266707        1.33889273482588
C            1.88284752713851        1.61979778089498       -0.83941270516022
C            0.85806698310779        2.05860676892715        0.03886057156953
C           -0.36164189121819        1.75733372902908        2.08066863543346
C            3.25827355448832       -0.17497502515865       -1.67302346573316
C            4.18466814393271        0.72244529659223       -2.13065703415962
C            2.78760371969460        2.53626526289296       -1.42076408536109
C            3.91613754387782        2.10636022916996       -2.05560367999252
C            0.22711086343510        3.31268168702138       -0.11965278456556
C           -0.68533188186111        3.76218425790768        0.79040837442731
C           -0.97180713437233        2.97983221736068        1.92263570908640
H            2.60461353788432        3.58912764159269       -1.28258409140764
H            4.61905532204899        2.81187616484459       -2.46780010772797
H            0.45170056832869        3.88615234407319       -1.00362856020491
H           -1.18422167615804        4.70766798168149        0.64945785905826
H           -1.66506523236253        3.32782540842437        2.66972283311379
C           -0.57069946389379        0.88783006354146        3.26720870792634
N            2.11060811908091        0.28213348778441       -1.11546832733374
N            0.50245764689463        1.31867576712152        1.14623378634432
C            3.41317904654582       -1.64946591350472       -1.77768530460136
H            5.10416521093805        0.36683735121098       -2.56269979438298
H            2.58583203901971       -2.07830888773341       -2.34240149828814
H            4.35331470803763       -1.90211754417713       -2.25712390717154
H            3.37849222747141       -2.09819585433422       -0.78438694078087
H           -0.97157891889769       -0.07811399113517        2.96219274388024
H            0.38827099280100        0.68793477294216        3.74456605730740
H           -1.24453866596197        1.35910910000530        3.97620257827678
