51
 energy: -112.032339714201 gnorm: 0.000187108343 xtb: 6.5.1 (b24c23e)
Si          -0.32888259959831       -0.79367622546356       -0.94025487863737
O           -1.48400740716647       -1.86719494392931       -0.71989238834081
C           -2.88968652742341       -1.85515344206124       -0.93186759623262
C           -3.61167618920645       -1.14511850692447        0.18356112660125
H           -3.09501610722690       -1.35101552641879       -1.88379923802442
C           -3.10260229312626       -1.14853849305180        1.47378924643511
C           -4.81426637711577       -0.50053063493950       -0.07609478800055
C           -3.78121052230778       -0.50029068048342        2.49048000135424
H           -2.16555831302588       -1.64634270497939        1.67278147288632
C           -5.49390193107705        0.14086083200791        0.94308996392922
H           -5.20803628893972       -0.49056102961465       -1.08214772289312
C           -4.97708288909702        0.14428100881006        2.22776598707146
H           -3.37447995570778       -0.49838801925229        3.49070514531324
H           -6.42380280104411        0.64741931505805        0.73157582078125
H           -5.50384457766692        0.65347030937304        3.02070039125339
C           -3.34147166048146       -3.32309809666050       -1.01974630082629
C           -2.74502316837188       -3.97793194140908       -2.16498062815132
H           -4.43082025184046       -3.35432674865637       -1.09850545838044
H           -3.03679200533511       -3.83707749541284       -0.10480294598162
C           -2.22688862978900       -4.47941054869133       -3.11944475629640
H           -1.78534477528419       -4.94137930116354       -3.95107168697194
Cl          -0.22039974250133        0.00601404094230       -2.77943757890827
Cl           1.31597201846420       -1.79590028271102       -0.41356551297420
O           -0.60202248407269        0.43179325087202        0.13800158395751
O            3.93365390730332        1.18570944166896       -0.38444597627293
C            1.29318039228914        1.90437643618612        0.02612113581161
C            2.03910670380280        1.05571034410455        0.91609572661013
C            4.00358670936444       -0.12682855147564        1.45110105149316
C           -0.89894012212044        2.63454654337469       -0.62535165571558
C           -0.37778517285853        3.60476790588783       -1.42632358901220
C            1.82536462521653        2.85361473971970       -0.83526285301368
C            1.01548811715039        3.69876730619857       -1.57110293247387
C            1.44760073321703        0.53170169180015        2.07186322256750
C            2.12825742020673       -0.32257956690236        2.90718059561005
C            3.43357463174668       -0.67050363319148        2.58141999512633
H            2.89874551833263        2.92154162598000       -0.91202558776743
H            1.44294406039013        4.42949937859243       -2.23460381519873
H            0.43752796740689        0.82837126558156        2.30382966612180
H            1.66356658015373       -0.71394654824556        3.79600898613422
H            4.00759621519634       -1.34646604479967        3.19307514790801
N           -0.10096747284091        1.75862470545051        0.08951848258557
N            3.34688430013325        0.72858189847300        0.62448049571645
H           -1.03959282562992        4.28818781606181       -1.93356236371148
C           -2.37608452119652        2.43512464209561       -0.45283262408020
C            5.42319151147069       -0.44640243186170        1.04570243294624
F            6.21058846455180        0.63636995528100        1.02724077609443
F            5.98966209301157       -1.29786256344987        1.92000905082887
F            5.51126851109104       -1.02975296591742       -0.15092497708353
F           -2.87008128829152        1.47268374299634       -1.25861274012045
F           -3.06522222603661        3.54532733075461       -0.75213672773160
F           -2.71261535412243        2.09967940040070        0.79738781764353
