51
 energy: -111.944941876933 gnorm: 0.000737666204 xtb: 6.5.1 (b24c23e)
Si           0.65336812887616       -1.07775393454411       -0.32305914855076
O           -2.24942631559432       -2.42703697381287       -0.73736800256079
C           -2.95343722161584       -1.82245425065545        0.03491579781633
C           -4.36141685506646       -1.48514133762833       -0.19018766102196
H           -2.55813611935779       -1.47227050219809        1.00557996398240
C           -4.99877434761072       -1.88228225994549       -1.36665705999767
C           -5.07110309470661       -0.76499006574899        0.77019879473269
C           -6.32702016998559       -1.56785646576011       -1.57491891130120
H           -4.42952033217345       -2.43606542985613       -2.09834134850232
C           -6.39986619845221       -0.45257137310636        0.55615447871885
H           -4.57128112535590       -0.45367147353820        1.67561819355640
C           -7.02780427369236       -0.85490010691468       -0.61334640601389
H           -6.82077395982179       -1.87648035042189       -2.48441351496185
H           -6.95113453722096        0.10462851606983        1.29911018163582
H           -8.06748448349920       -0.61092361061287       -0.77600591248767
C           -0.42026252685156       -4.40464972553503        1.45734376452794
C           -0.10528789017951       -3.15488109411509        1.39307476008725
H            0.32386147376355       -5.16853062207093        1.60907943145467
H           -1.44091262169006       -4.73379857466846        1.35572609245682
C            0.21112377758784       -1.89682291739185        1.30087900480572
H            0.24462326708460       -1.28130333189984        2.18926498802905
Cl          -0.67031190996338        0.31666845414427       -1.00493853438961
Cl           0.93674865998627       -2.38482019584424       -1.81808378574621
O            0.86438628782186        0.89499576757897        1.69333832245167
O            2.15032445006370       -0.36102733292419       -0.42996101522551
C            1.69470367431002        2.45554647953725        0.23651655663796
C            2.95887407061222        1.77501663504804        0.23565748049168
C            4.17547576492997       -0.22351670024008        0.71921569693264
C           -0.47458768431381        2.63435866486284        1.13286044976313
C           -0.72573411222871        3.79182587752062        0.42663133754812
C            1.46352561776890        3.62592550331424       -0.49268881934879
C            0.26215652059569        4.29056289417951       -0.41587602540244
C            4.16845685749355        2.45805774652527        0.15778900800063
C            5.37112517166692        1.81982762497076        0.37227626951865
C            5.35494497868717        0.45592239198998        0.72384710591261
H            2.24275883697024        3.98015797467336       -1.14757796539229
H            0.08492196825658        5.18080949837390       -0.99528372900261
H            4.14549698346659        3.52249604555807       -0.01439793685707
H            6.30317286413419        2.35493743236784        0.32388292474851
H            6.26348882867288       -0.05029052070790        1.00648721948941
N            0.69367440349769        1.95947041499218        1.03876759546225
N            2.98087795064372        0.38874227586690        0.40353567347368
H           -1.67667180465313        4.28561712817934        0.53428503727965
C           -1.46848670508330        2.08153417845202        2.12262020545895
C            4.10103368590682       -1.68677865535391        1.06019242888337
F            3.92289437323313       -2.47668462798617       -0.00906821762278
F            5.23794259910053       -2.10622660241213        1.64003828977231
F            3.11485576166153       -1.96754025425200        1.91836142030992
F           -1.83476553881420        0.81739090420277        1.90381997091928
F           -2.60406029593678        2.80024469866902        2.11877131651649
F           -1.00229983275919        2.13807518317441        3.38033923662604
