51
 energy: -112.027799839759 gnorm: 0.000686861699 xtb: 6.5.1 (b24c23e)
Si           0.07696191145155       -0.89541873087105       -0.32797652101134
O            1.16604103829070        0.02819320995868        0.46144010794230
C            2.13552966493930       -0.40562470552904        1.40114940557753
C            3.20271357996607       -1.26624140285460        0.77618954144052
H            1.62403006013181       -0.98197808646924        2.18094360127128
C            3.63706000537812       -1.03753278918357       -0.52055629414382
C            3.77658339438059       -2.29175021633401        1.51624731144188
C            4.62615961646637       -1.83036317665220       -1.07535113483748
H            3.18707937628551       -0.25351530763847       -1.10669531727596
C            4.77098038897286       -3.07746086167112        0.96393770454957
H            3.43194881717142       -2.48124588851285        2.52234965925027
C            5.19746316417634       -2.84886859737011       -0.33376474219644
H            4.94724574809140       -1.65018026067117       -2.09017673724400
H            5.20778370009678       -3.87620213197763        1.54485867830507
H            5.96882453100710       -3.46817787567567       -0.76713768793787
C            2.76786238950146        0.84624674599343        2.03560546732195
C            1.78824978109905        1.59499210164167        2.79048369303334
H            3.19500603374326        1.47344933881254        1.25060959971718
H            3.57284279759305        0.52547956314490        2.70127692239354
C            0.94085627069642        2.17621777582626        3.40421597933999
H            0.22510306213720        2.69142757312190        3.97157415300166
Cl           0.40764571110961       -1.49687017731154       -2.22263873581383
Cl           0.29192252210570       -2.70804042530671        0.68373214074345
O           -1.48651370591024       -0.81817417786841        0.36698053266334
O           -0.45610622650262        0.83721436549205       -1.19582914650273
C           -2.65549684661171        1.28136315376192        0.33772169461139
C           -1.51020172219889        2.11814321298652        0.40971370441107
C            0.61089045536995        2.73396143255584       -0.43552158771054
C           -3.70345899756191       -0.78266219396371       -0.26466804168522
C           -4.94687146850363       -0.23235360114944       -0.20396647112039
C           -3.94818363497043        1.82487588808633        0.50285121538974
C           -5.07657678626667        1.10662359842686        0.23914660171221
C           -1.47093044791504        3.25557261763261        1.24720878299098
C           -0.40021696943884        4.10161362285299        1.24737390386066
C            0.66331094184103        3.84852147686331        0.36966837420175
H           -4.02465966642555        2.86326583546161        0.78135437681142
H           -6.05471236848670        1.54513999498800        0.33714777413210
H           -2.29258081399135        3.41303049234543        1.92628978854912
H           -0.36190553413726        4.95426156774763        1.90427848367867
H            1.51535474316648        4.50470716393725        0.31865210773111
N           -2.58141015087850       -0.07676909170292        0.04307665528907
N           -0.43110117815071        1.88625112214324       -0.41498064649866
H           -5.81209296936040       -0.81205894754758       -0.47606946841167
C           -3.51500434876633       -2.24159534516754       -0.62103350044683
C            1.73613933684632        2.57903777058528       -1.43420420507800
F            1.80975376435373        1.46273333244537       -2.12931402334861
F            1.66399560435004        3.58628189765734       -2.33322392180473
F            2.92495614105060        2.73375922994966       -0.82157987057522
F           -2.61897913578955       -2.43004619509315       -1.58737855787099
F           -4.66908326906216       -2.76395619804819       -1.07119261600977
F           -3.15958131084800       -2.98181869984938        0.43026326617382
