51
 energy: -112.025329765180 gnorm: 0.000402342158 xtb: 6.5.1 (b24c23e)
Si           0.13919500811646       -0.54265270626611        0.77012184437723
O            1.64210041695037       -0.87013079639916        0.31427874758478
C            2.94274391970793       -0.41846425920626        0.62409541800879
C            3.90802945047706       -1.01108256491585       -0.37493278878621
H            2.96237277596872        0.67523718483987        0.55702101569661
C            3.68931011772923       -2.27446715533063       -0.90600892754485
C            5.05495223691064       -0.31197837592827       -0.72879650298632
C            4.60418985814120       -2.82963729085923       -1.78339244821201
H            2.79379795732586       -2.81264977561619       -0.63646097488707
C            5.97176639986344       -0.87126381221200       -1.60068976106333
H            5.22727473421711        0.67226340818574       -0.31691582856233
C            5.74824128579193       -2.13160619438841       -2.12964482651061
H            4.42442702600407       -3.81200249785646       -2.19454805008158
H            6.86168611592725       -0.32143812458748       -1.86974270696281
H            6.46398460497553       -2.56700320958886       -2.81120493984387
C            3.36020341961480       -0.84906994986557        2.04664725588545
C            2.90682367691474        0.07467848131700        3.06344214378013
H            4.45141968380744       -0.91047729157179        2.08636579276125
H            2.94763090899061       -1.84248820339969        2.23886260763404
C            2.56451755805581        0.85466744220045        3.90335644121578
H            2.23429337951581        1.52607514037104        4.63809764013971
Cl          -0.78284760649250       -1.78972204590199       -0.51882484344329
Cl          -0.18263449181610       -0.87517252808600        2.70018564481019
O           -2.40475439160385        0.21867485917106        1.21303597989742
O           -0.01840239739946        0.99770766151307        0.17593188166479
C           -2.77305575767560        0.87060889213188       -0.94658454189057
C           -1.98153384050669        2.04656490886510       -0.72273342057931
C           -0.42269729253179        3.23391269445423        0.64799094011482
C           -3.82501770865647       -1.03033021406434       -0.03501467819026
C           -4.45181022502643       -1.31865149359100       -1.22798148503770
C           -3.38787280931619        0.59126780536680       -2.17222506071172
C           -4.21281657352969       -0.49762240305994       -2.32524455985989
C           -2.28119906003800        3.25130642119811       -1.35553022500683
C           -1.68463200338909        4.43637631943333       -0.98723882967260
C           -0.77041359698746        4.42200153361894        0.08512104875903
H           -3.17287345944427        1.23321913190807       -3.01060287787429
H           -4.66765254997434       -0.71576513893598       -3.27668594616924
H           -3.05048728019870        3.25051923894689       -2.11107788053808
H           -1.93800820522279        5.36342694612568       -1.47045842334362
H           -0.35371140795854        5.33926826777211        0.46773280102794
N           -2.98773278805431        0.02009159525321        0.11049592796655
N           -0.95576685604143        2.03225279349634        0.22854992357940
H           -5.10474211446132       -2.17242901067921       -1.29333450188471
C           -4.06468458517468       -1.84901595589020        1.21099457155088
C            0.59214490314025        3.14976886745379        1.75384490992919
F            1.79616399265063        2.72845934739527        1.32184171323594
F            0.81003306586303        4.35250137209896        2.30906864738542
F            0.22269855031954        2.33637892833075        2.74188961774208
F           -2.97151363441174       -2.42957981584238        1.70153813743487
F           -4.93938986949581       -2.84063959907979        0.96594100887934
F           -4.60699654156958       -1.11696282833416        2.19359536856677
