51
 energy: -112.027449728305 gnorm: 0.000458474766 xtb: 6.5.1 (b24c23e)
Si           0.21896475223615       -0.86489452489161       -0.86833155226938
O            1.26263469927519       -0.07898079507723        0.10660323144664
C            2.16644627594280       -0.62272054001987        1.04973981962802
C            3.42648354820078       -1.15803252616529        0.41742461659550
H            1.66589277516452       -1.44176606846266        1.58006092167624
C            3.82269321701000       -0.78954271011316       -0.85794799100320
C            4.22033994399138       -2.03385862455228        1.14944579721604
C            4.99600367576446       -1.28986396652366       -1.39640025791577
H            3.20759886762917       -0.12649210420013       -1.44245258348063
C            5.39532256552819       -2.52608316011124        0.61418744533722
H            3.90732527786359       -2.33845470541382        2.13808006999129
C            5.78705072147582       -2.15366355160059       -0.66138914192781
H            5.28772458456951       -1.00164093697610       -2.39495597287921
H            6.00358489967343       -3.20760147470691        1.19053903506116
H            6.70271666740959       -2.54252393814665       -1.08166726595301
C            2.50457256867757        0.49126803606958        2.05926773236438
C            1.32060077201254        0.89372840291033        2.78504784635959
H            2.92812528742704        1.34465546492417        1.52554323184211
H            3.25153426163854        0.11316693020359        2.76058050952383
C            0.30943522097760        1.18429225434242        3.35549231063244
H           -0.55736255597052        1.43961637261699        3.88752345243638
Cl           0.62377820241866       -1.12683425594228       -2.82570497914039
Cl           0.43110579886812       -2.82212882871978       -0.17839312988162
O           -1.37193442079038       -0.92412217366031       -0.23022349633605
O           -0.30927770693813        0.98060876054545       -1.44470723383033
C           -2.57362972968080        1.14073019236540        0.04860307004813
C           -1.44791700380242        1.96760251380643        0.30435786157935
C            0.70383919827814        2.72181080517699       -0.32340301587083
C           -3.56304226652665       -0.80237020699815       -0.93388710089932
C           -4.81763006755486       -0.28529161278374       -0.82823081166304
C           -3.88141212091184        1.63293902434725        0.25360826259924
C           -4.98694621584343        0.95646675346495       -0.16878340339376
C           -1.46144533077318        2.95231040561706        1.31772745412867
C           -0.40081042974631        3.78868995865129        1.51212830114814
C            0.70781958037927        3.68378738303258        0.66089635343429
H           -3.98656993407155        2.60820787116885        0.70003217100993
H           -5.97547821579192        1.36030486189253       -0.03339248802428
H           -2.31677978717447        2.99617490415565        1.97128077096026
H           -0.40346926985005        4.51829161662513        2.30421230367806
H            1.55673011971739        4.33870582991843        0.76186471332538
N           -2.46513171539446       -0.14780729024784       -0.46637527253891
N           -0.33017123724538        1.88256840672521       -0.49703425877006
H           -5.66178978920344       -0.81980300429075       -1.22867171363670
C           -3.33534157400520       -2.17413325197915       -1.53205164391404
C            1.89397553237677        2.72620139864968       -1.25783609380309
F            3.03728082085218        2.62837383645956       -0.55538384963655
F            1.94534564305910        1.81830083565863       -2.21046593010796
F            1.95675348052007        3.92828124429524       -1.87477968777751
F           -2.40482759770611       -2.17652694597187       -2.48441716587802
F           -4.46363283214608       -2.62452285471318       -2.10728301458690
F           -2.99928515779189       -3.08335501135335       -0.61593422688895
