51
 energy: -112.024551248789 gnorm: 0.000979174184 xtb: 6.5.1 (b24c23e)
Si           0.48436325005589       -0.15848712621977        0.43107161770016
O            1.22651329333399       -0.71846216733501       -0.87658488328877
C            2.01689280311330       -1.88336065156467       -1.03097264539851
C            3.30394091700810       -1.79369201351129       -0.25318592128015
H            1.43758980126529       -2.74758288003306       -0.68571525648378
C            3.98859743728559       -0.58923515869767       -0.17510403221303
C            3.82221725107201       -2.91551761713651        0.37837247389954
C            5.17102453345562       -0.50468398829676        0.53818277137452
H            3.58158845636907        0.28483725996065       -0.65866964630330
C            5.00861149908291       -2.83093012063014        1.08388065325261
H            3.28614736289784       -3.85176165951963        0.32772970290542
C            5.68403804248507       -1.62515038383685        1.16727701677401
H            5.69059771720215        0.44003114240319        0.60180340764699
H            5.40168992811824       -3.70617414191074        1.57930962848361
H            6.60591786336685       -1.55875808301232        1.72619218197798
C            2.31111764760590       -2.02597016858698       -2.53425974801887
C            1.10528116349348       -2.30776094686873       -3.28211568861041
H            3.03218299240804       -2.83494332088385       -2.67773434239114
H            2.74889776237996       -1.08994383204092       -2.88841544984689
C            0.09815213869262       -2.54332462797565       -3.88274599651063
H           -0.77926162005545       -2.75156233390410       -4.41792386554185
Cl           1.21256280820295        1.41778666998954        1.55743719774228
Cl           0.90483697199790       -1.64872615438298        1.84639224489211
O           -0.19290314837317        1.13341358016210       -0.87944760330823
O           -1.15939093118700       -0.44556667517036        0.79797224090226
C           -1.86188550070515        2.35267112936272        0.17816065894290
C           -2.74034920014632        1.23857848837490        0.14243551090658
C           -3.11306943608871       -1.09443752476271       -0.22799163597680
C            0.14720118846993        3.37441316755146       -0.56221099553067
C           -0.20974550223788        4.59090728419493       -0.03928437294898
C           -2.23605052440529        3.59368579045234        0.74391514227230
C           -1.41987153916513        4.68441856264212        0.66932006010229
C           -4.13571845807003        1.42508887919194        0.02387102876925
C           -4.97826441750450        0.39561799472073       -0.27562935624607
C           -4.43999839275790       -0.90104946742490       -0.46404930072944
H           -3.16592943892246        3.64477283592914        1.28578445548004
H           -1.69693399366442        5.61566830603197        1.13449349285350
H           -4.51863905013329        2.42899082903267        0.10779525842501
H           -6.03578590895926        0.55676662203324       -0.39579175859305
H           -5.06476782729644       -1.72281494621992       -0.76929811174762
N           -0.63056795621843        2.28329854700589       -0.42767323986182
N           -2.28754759548776       -0.07630817517964        0.13012932512983
H            0.43208463837908        5.44522963856355       -0.16695963050586
C            1.35628726016449        3.23192779571647       -1.46226631802330
C           -2.50519791032474       -2.47971923246268       -0.27068787185029
F           -1.34587809670411       -2.53665876537204       -0.92113328781167
F           -2.31708629610639       -2.98611708864873        0.95083835394052
F           -3.33268013383550       -3.33083321279034       -0.90298200456473
F            2.27032651664473        2.34880022561574       -1.08709256346874
F            1.99614683384985        4.40820620271375       -1.57231797904607
F            0.97333179996095        2.90462551273463       -2.70630791827112
