51
 energy: -112.029058810189 gnorm: 0.000669034439 xtb: 6.5.1 (b24c23e)
Si          -0.00206349536342       -0.59299999886863        1.35202047348265
O            0.90607234352249       -1.41723802808038        0.34856029094322
C            1.67878291244099       -1.25958973030890       -0.82753609362552
C            3.11229789432703       -1.62681133268123       -0.54495064866395
H            1.61447741458167       -0.22257462342099       -1.15891669271631
C            3.42642825115499       -2.59596677371079        0.39725162311578
C            4.13255645070370       -1.00389964528149       -1.25226900672380
C            4.74766218004095       -2.93384088269425        0.63303533392118
H            2.63263028594780       -3.07189221474722        0.95260850367336
C            5.45172104162391       -1.34842663350517       -1.02012542673615
H            3.88867957333591       -0.24523947422138       -1.98188075309318
C            5.76166132026490       -2.31346629101420       -0.07617597668025
H            4.98517594607899       -3.68422920557651        1.37254851581785
H            6.24024698458389       -0.85847874746130       -1.57220123171566
H            6.79250171304182       -2.57796896491014        0.10825508513059
C            1.08660506399235       -2.16879890857355       -1.92154583886865
C           -0.11107304055550       -1.59410222286611       -2.49363465296772
H            0.85393077007952       -3.13974575566681       -1.47863795358726
H            1.83209236685561       -2.30372843036499       -2.70919632866970
C           -1.09758499489438       -1.09796018751477       -2.95474111044978
H           -1.95521337910702       -0.67003759308931       -3.38089896792775
Cl           0.69513570079590        1.05451536575726        2.28999058361662
Cl          -0.29211857101027       -1.94887031241914        2.80824187923699
O            0.03783460649040        1.02907105606499       -0.63914238525027
O           -1.61094233231726       -0.29263239481416        1.02648081260615
C           -1.69458982672779        2.40442065743554       -0.05162840616453
C           -2.62921848190946        1.36403798379033       -0.36127095606263
C           -3.17657943865641       -0.96135026975390       -0.56385243311160
C            0.53481038577042        3.17604626694584       -0.09473354513236
C            0.16316840950721        4.43325435307855        0.33215809743631
C           -2.09843436677209        3.67795386484902        0.37738516112115
C           -1.18474374450649        4.67966143397362        0.59135958721092
C           -3.83894618721339        1.66190492888016       -0.99198699341986
C           -4.67679581968942        0.68000570746008       -1.45915235391648
C           -4.31260836415199       -0.67029351891607       -1.25329290458965
H           -3.14539627438762        3.84017383715879        0.57529069959291
H           -1.49840510162111        5.64597583557365        0.94864963755545
H           -4.07390605724245        2.70031944833104       -1.16427794077955
H           -5.58718569106340        0.91998743979206       -1.97964618646618
H           -4.93185651444990       -1.46805528827250       -1.62845288793633
N           -0.35661033838410        2.17677478756790       -0.25843202993352
N           -2.33294746640572        0.02123835902220       -0.10647610093122
H            0.91014723291713        5.19844442062847        0.45576704005966
C            1.94998886061092        2.87257711625853       -0.52465213711885
C           -2.87919039509340       -2.38598107669138       -0.16849698982088
F           -3.24868421575567       -2.62457153177794        1.10121498608073
F           -3.58556127851134       -3.24339948886868       -0.92353956018921
F           -1.60720544224211       -2.75788859807691       -0.28011292512459
F            2.54344560419277        1.87047409978533        0.12106059080258
F            2.73919896896474        3.94559502759703       -0.36043985996181
F            2.00537353620711        2.57187813420051       -1.83433962306997
