51
 energy: -112.023832686958 gnorm: 0.000709719428 xtb: 6.5.1 (b24c23e)
Si          -0.10390998466183        0.47169397809661        1.31869731522717
O            1.31337272159275        0.46136716190018        0.53196858447157
C            2.25708902611224        1.48634723204001        0.22867453585332
C            1.65841766167437        2.40093697812321       -0.81618880807658
H            3.09697408867768        0.93580540255871       -0.22270722328999
C            1.26900575241643        1.81950697946832       -2.01877120362913
C            1.42982297722469        3.75496550910305       -0.62075633468140
C            0.65198583389809        2.56904492513630       -3.00197171575608
H            1.45048904287696        0.76496893979126       -2.17663603401691
C            0.81914504316579        4.50759230778622       -1.61006470179639
H            1.71093358459066        4.23341549723488        0.30239748703888
C            0.42406129697103        3.91963891286780       -2.79814105794500
H            0.34990648210240        2.09937601799848       -3.92720670591291
H            0.64346191945628        5.55965928205616       -1.44395184089544
H           -0.05991396901368        4.50928222940431       -3.56252716388304
C            2.76409175370197        2.18438715394339        1.49267316415875
C            3.32531996690271        1.21588930375693        2.41224384931492
H            1.93833152203380        2.70132803797560        1.98507991633631
H            3.53321408569187        2.90652205677861        1.20693786908255
C            3.76691793744348        0.39251176776768        3.15854126437052
H            4.15186904000801       -0.31774561220153        3.82661493095583
Cl          -0.11953619305518       -0.28448418904108        3.16593181313193
Cl          -0.58729727124393        2.45712117179670        1.57279217759388
O           -1.42720153873558        0.34761539125246        0.26981676435212
O            0.02846797305475       -1.67758829449615        0.76164960729741
C           -1.64022164896736       -1.43338205983299       -1.33257964722773
C           -0.24826021283983       -1.66400631137525       -1.51363434892134
C            1.87114817468725       -2.05532758256733       -0.55080336778274
C           -3.46225781572314       -0.73430734317099        0.05304006509553
C           -4.37025979151283       -1.35713751428506       -0.74438671738934
C           -2.58695092476261       -1.98941170967427       -2.21113243571218
C           -3.92675499259022       -1.96389436455012       -1.94467671863141
C            0.32910965240880       -1.81676961515267       -2.79001403097072
C            1.66474565776397       -2.07654611461397       -2.93753412141569
C            2.45597410449343       -2.20397927970077       -1.79234165923164
H           -2.22135898997294       -2.50459123811873       -3.08468293075009
H           -4.63918512183267       -2.41926452166600       -2.61031462860169
H           -0.29852824144064       -1.67337569961786       -3.65393966926093
H            2.10815565629466       -2.16921028257816       -3.91489721742500
H            3.51118980742130       -2.41001204527489       -1.85786178451763
N           -2.12819521147158       -0.71466703024664       -0.24116878593006
N            0.55912137312178       -1.80340074096463       -0.40428551228446
H           -5.41032150684974       -1.37925630546825       -0.46660035440025
C           -3.89575715692917        0.01019339186472        1.29414960658110
C            2.77750495169958       -2.25474399464566        0.64318696649727
F            3.88505424250901       -1.50204296849957        0.50425295232160
F            2.29131726138599       -2.02129113522035        1.84311524887666
F            3.21914611454798       -3.53572980838876        0.65202148416794
F           -3.19732613771843       -0.33245581752040        2.37612674296551
F           -5.18261598276721       -0.25253238876749        1.57637105458309
F           -3.81255601383200        1.33703133894823        1.15644332005437
