51
 energy: -112.026613040967 gnorm: 0.000860082471 xtb: 6.5.1 (b24c23e)
Si           0.07291370731703       -1.08291882696534       -0.38932105838998
O           -1.26243711895224       -1.73873106973660        0.22175341310383
C           -2.47198060603929       -2.12676159160253       -0.39839882706707
C           -3.60780094434630       -1.23968481869646        0.03911340145271
H           -2.34995034030136       -2.06939701362053       -1.48709880618416
C           -3.61414457693669       -0.68190826355205        1.30953845572747
C           -4.67185615448078       -0.99695423656785       -0.81881166019795
C           -4.66840607862734        0.11664970352519        1.71425316768165
H           -2.77895942280119       -0.86658595750204        1.96809008400912
C           -5.72881830245996       -0.20423810938731       -0.40988141446794
H           -4.66701710071015       -1.42590693742306       -1.81083854583138
C           -5.72834808244957        0.35506753823410        0.85669296038893
H           -4.66319195733627        0.55374184732433        2.70259752105746
H           -6.55219133680112       -0.01758503357316       -1.08365925058781
H           -6.55170059076312        0.97855812849596        1.17299939987195
C           -2.74890990655574       -3.59125291043366       -0.00461382611020
C           -1.68506096926563       -4.44634855486498       -0.48606072973145
H           -3.70525025064837       -3.90136631519972       -0.43218512138653
H           -2.80746246075272       -3.65628705009958        1.08479236975833
C           -0.76491783203126       -5.09140925180071       -0.89655856469754
H            0.02708349747561       -5.68101878704580       -1.24983057224017
Cl           0.20859147127620       -1.49611410911950       -2.32909607182794
Cl           1.41157599220087       -1.86638180013389        0.89500538420613
O           -0.19587486075190        0.48710617844094        0.08311023500793
O            2.16041013705168        0.26185409112186       -1.18961232109713
C            1.46531581296431        2.14137857427720        0.62025835069284
C            2.58571006855428        1.27032633751382        0.81856340751218
C            4.03054756800425       -0.36535483799512       -0.07340977215173
C           -0.53771127385490        2.68023268917379       -0.57458028999345
C           -0.47216424666502        3.97996148704275       -0.18197246001668
C            1.48378477598188        3.45455286975104        1.09394601801687
C            0.53572097924026        4.37786031075571        0.72206167554301
C            3.40702487159196        1.33645187653743        1.95228947275739
C            4.52847713915909        0.55198163633625        2.06837768436806
C            4.86132282472838       -0.30679363221837        1.02431961433322
H            2.30902690185588        3.75578101202740        1.71875821068617
H            0.57529005800751        5.39321153695158        1.07488610348340
H            3.11956153254214        1.99582109439331        2.75454854574847
H            5.14374270183173        0.59679948803717        2.95118466842043
H            5.74126246837228       -0.92623950584913        1.06099103835756
N            0.37222809883459        1.73465954854835       -0.15292720192820
N            2.91098955421687        0.38183305563203       -0.17658961809402
H           -1.18323031678383        4.69353603346300       -0.56423310084922
C           -1.65063983226953        2.18742474076419       -1.46086784790003
C            4.34697199818599       -1.23256226917511       -1.26827298576758
F            4.55003919415645       -0.50063586988836       -2.37281135243770
F            5.48538446945403       -1.91958220083282       -1.06815915109787
F            3.41268197647644       -2.13634879951418       -1.55451668953508
F           -1.24602940289886        1.33804152506649       -2.40536474567930
F           -2.24663170584081        3.20881454274696       -2.09798410971930
F           -2.62532212814904        1.57129490661296       -0.77037808717227
