51
 energy: -112.027977178432 gnorm: 0.000620242713 xtb: 6.5.1 (b24c23e)
Si           0.07001664802049       -0.34255967505867        1.46392680971636
O            0.92096562259951        0.98491542947611        1.30729517462042
C            0.84617656800923        2.22856076900893        0.62164173662919
C            2.13882023631183        2.45618098393082       -0.11580872672460
H            0.02238224947195        2.18231324312983       -0.09070090380073
C            3.35183323877495        2.38162232712955        0.55665559443208
C            2.12754310698463        2.73229526231815       -1.47538687286429
C            4.53858080935493        2.58583223126240       -0.12290751232936
H            3.36432353762803        2.13819419102273        1.60822952948923
C            3.31604236002589        2.94223502274478       -2.15266239368311
H            1.18576439047764        2.77269517005355       -2.00264902306258
C            4.52254355797152        2.87073840252982       -1.47782514782288
H            5.47884390046033        2.52015604155444        0.40455468020816
H            3.30034129666773        3.15554007405040       -3.21154484506339
H            5.44999348408399        3.02961940643055       -2.00859313226679
C            0.59276011240344        3.34184837923975        1.65117899319728
C           -0.65347937968320        3.13361123712252        2.35677376478207
H            0.56600854979934        4.29922303248530        1.12497878716973
H            1.41497089901745        3.35624986175743        2.37110938973226
C           -1.67574880365931        2.91531706369340        2.93840164518165
H           -2.57534837073308        2.74597089802628        3.44968187206663
Cl           0.73118041132009       -1.10769985405238        3.19264711277627
Cl          -1.93812166485526       -0.20200792595016        1.60163035673476
O           -0.62324455632323        0.26920620636141       -1.09729560452960
O            0.42941652189534       -1.66047952542650        0.53020993246117
C           -1.69016337967089       -1.71863262906676       -1.52065131107445
C           -0.43103676916831       -2.40213927077765       -1.56937118635708
C            1.91362937514707       -2.40486020247099       -1.10290084974202
C           -2.86289823788898        0.32189274365394       -1.45955554450883
C           -4.07250045179760       -0.30591708046903       -1.66841481620447
C           -2.90915946453761       -2.38056726693679       -1.71932480733078
C           -4.09706459704387       -1.69322187638504       -1.77517257756073
C           -0.22532793631559       -3.48500422209881       -2.42449004366334
C            1.02823084533092       -4.00799418707361       -2.64113547086659
C            2.12939625026797       -3.40470809932838       -1.99892399666303
H           -2.89786494079433       -3.45543967990714       -1.79455929674560
H           -5.03139491410605       -2.21244414887731       -1.90592897363211
H           -1.07090513020154       -3.87159343273674       -2.97062697790668
H            1.18111333795882       -4.83127307817317       -3.31657153545771
H            3.13588762027365       -3.72296452822389       -2.21557621005944
N           -1.69800689995480       -0.35489828519603       -1.34315801767375
N            0.65084747514086       -1.92991245582718       -0.82354538575015
H           -4.97177861254641        0.28180943595414       -1.74135967988540
C           -2.76249366237844        1.82631801310743       -1.40061677374439
C            3.04756627356682       -1.75888301087566       -0.35215974310131
F            3.14148420857892       -2.17099152082379        0.92038276300482
F            4.22959340749788       -2.05375311902562       -0.92019863629801
F            2.95971704595031       -0.42891331912376       -0.33207924481913
F           -2.40315378170229        2.30717952109410       -0.20999614560856
F           -3.94377849222378        2.39487267872749       -1.69271793771269
F           -1.89076729540021        2.31068476801516       -2.29812181769226
