51
 energy: -112.032293574803 gnorm: 0.000532570703 xtb: 6.5.1 (b24c23e)
Si           1.01138206655982        0.02487770720535       -1.14132551040469
O            2.33263039198171        0.91861825815126       -1.13453718149451
C            2.59268427833293        2.20195330830639       -0.56724371887359
C            2.14324647440922        2.24958700486794        0.86830869159878
H            2.03240596611096        2.93948460628295       -1.15637767070424
C            2.59098282106401        1.28849096787884        1.76593120225873
C            1.25839069953772        3.22734178546543        1.30089858635911
C            2.14724959150013        1.29579258152573        3.07537356955255
H            3.27166281118937        0.52209773251530        1.43063563063204
C            0.83029831450398        3.24559916608882        2.61707451844122
H            0.90456543502477        3.97581875241680        0.60666034452342
C            1.26756582690772        2.27625710267568        3.50393960774623
H            2.48851177823202        0.53329049292939        3.75875748735267
H            0.15230122097007        4.01882859923494        2.94803426893647
H            0.92453476932037        2.28499192943206        4.52812546425655
C            4.09787500228826        2.47072580273023       -0.70340106989031
C            4.47431951616851        2.64200799709359       -2.09102938901907
H            4.64650868551659        1.62651877536329       -0.28056829761515
H            4.34614678433599        3.37428613391209       -0.14019500605287
C            4.75295893454360        2.78497836978633       -3.24536031239881
H            5.01598260596221        2.90714744527180       -4.25324958226692
Cl           1.30412831868422       -1.43200961700152       -2.46469535695256
Cl          -0.63631732578880        1.12926684904926       -1.50725429910242
O            0.87049802079970       -0.60845626141853        0.38033226840807
O           -3.62524144507833       -1.28536870805632       -0.67109580952062
C           -1.16714662717894       -1.87948720893834        0.46994445644661
C           -1.92926105284165       -0.69868165605648        0.77345645530225
C           -3.78625623391818        0.69927811339757        0.39052437904546
C            0.97928498863287       -2.93596129249552        0.68308116677633
C            0.48270779892375       -4.12059551715959        0.23152786037493
C           -1.66030628369436       -3.06999323379481       -0.04796363575592
C           -0.85421820434548       -4.18346402965336       -0.19328373547220
C           -1.45348273546973        0.24424925268305        1.69413445270048
C           -2.13339725663359        1.41121117943908        1.95049630569502
C           -3.32083991089553        1.65203297998349        1.27044426697832
H           -2.70103115109432       -3.10733803003447       -0.32789729681623
H           -1.24959337632994       -5.09703893272146       -0.60089584339109
H           -0.53390746313767        0.03345261372389        2.21549103163576
H           -1.75108183307432        2.12293880721120        2.66144809493476
H           -3.88579064931820        2.55688923003030        1.42119572039895
N            0.19942046177021       -1.79690745608210        0.77240267587053
N           -3.13180176212442       -0.46460761787274        0.13802261288456
H            1.11547864067274       -4.99324347282111        0.21422481268864
C            2.39153887497374       -2.77344715191420        1.16583891270077
C           -5.08124466466524        0.88333637730893       -0.36510744588617
F           -4.92102831225864        0.89150497991788       -1.69002354927396
F           -5.98868781425298       -0.05548420953619       -0.07226481503099
F           -5.65376664364172        2.05970972847164       -0.05080086816436
F            3.20209005949917       -2.16130346947129        0.28488922272906
F            2.96209855551405       -3.95621285244116        1.43100018125364
F            2.46046105181268       -2.05332391288176        2.29683514560614
