51
 energy: -112.038237854899 gnorm: 0.000762461445 xtb: 6.5.1 (b24c23e)
Si           0.57067920056454       -1.81645613272437        0.18673831806483
O            1.00845982462477       -0.44656157664354        0.88532344764195
C            0.62323192486383        0.32316106887904        2.01985471092192
C            1.28009299040986        1.67241966697350        1.88349345295280
H           -0.46685932723224        0.43502092694367        2.00350561087507
C            2.65163072925342        1.75718722631881        1.67878273660904
C            0.52287735896502        2.83335840831408        1.95032355810297
C            3.26193093272923        2.99229906891526        1.55650419430044
H            3.23822021569881        0.85354585431874        1.60100242281980
C            1.13775965155806        4.06809793192351        1.83304332072980
H           -0.54670701226017        2.76495930539735        2.07356337935095
C            2.50654805247690        4.15017602949593        1.64053714406524
H            4.32874363473824        3.05116468358922        1.39852527102267
H            0.54454216690293        4.96853868259342        1.88822465025156
H            2.98456338983205        5.11470383180954        1.55060204085763
C            1.05320273418935       -0.36884008670643        3.32140053521544
C            0.32457342410137       -1.60024068902683        3.53647738060090
H            0.86743960239865        0.31733393104503        4.15150908822290
H            2.12394370858806       -0.58402852048751        3.27468308175113
C           -0.28564852584585       -2.62019968139553        3.67355204017248
H           -0.81765942298847       -3.51198182237436        3.82008303919883
Cl           1.74601070541935       -3.36250710039396        0.60620187522077
Cl          -1.36954354777687       -2.27713778378932        0.46996797380675
O           -1.92388271511104        1.61343328996792        0.18867952305942
O            0.79040208916742       -1.49773572590867       -1.42661976476856
C           -1.39128617900949        0.25004745440425       -1.58220102778996
C           -0.03725966331404        0.74469024180286       -1.59966765667256
C            2.24748511055649        0.23537300125294       -2.08007549771512
C           -3.53595817099796        0.24591832431376       -0.61940098272948
C           -3.97561636686025       -0.73650487420573       -1.48066782558725
C           -1.80895580808183       -0.75279750942610       -2.46034559499543
C           -3.09360687501086       -1.24592484538666       -2.42591907303929
C            0.33650495933019        2.04788310078431       -1.32038207606134
C            1.65014997927753        2.46196659353772       -1.44784333015117
C            2.61445910778266        1.52796422238883       -1.85592156477539
H           -1.09593446122248       -1.12355792420070       -3.17918043472116
H           -3.41017580101197       -2.01211796444035       -3.11259731450043
H           -0.42617424307883        2.74312162958294       -1.00966280643736
H            1.93152864568774        3.47765639565982       -1.23540273227383
H            3.64273083658440        1.81890164432421       -1.99923253021547
N           -2.27406199890323        0.74432032845277       -0.64968968759207
N            0.93683056925495       -0.19118608833559       -1.96369656644568
H           -4.98840280833027       -1.09525764743529       -1.40239836420488
C           -4.42468689826009        0.82785932130262        0.45266466900080
C            3.23743976822053       -0.82491357711407       -2.46626852881256
F            2.74871771616494       -1.69996370398022       -3.35099724533456
F            4.33671386439510       -0.29060830466462       -3.02244163394618
F            3.67203280147126       -1.53863867431287       -1.41187875872579
F           -3.95359534934737        0.62451918951422        1.68742369102272
F           -5.64734986195565        0.27358821848197        0.42063608366047
F           -4.61210065860944        2.14612066066467        0.30958975800035
