51
 energy: -112.024555239685 gnorm: 0.000475155191 xtb: 6.5.1 (b24c23e)
Si          -0.35166784483792       -0.13353312869539       -0.52990344323938
O           -1.15833588450306       -0.58327464854267        0.78210151124185
C           -2.15153105280178       -1.58175252969617        0.92856206880264
C           -3.41240183029991       -1.23736182721713        0.17948690293906
H           -1.75029929149549       -2.53107272595491        0.55496399347613
C           -3.85698959066680        0.07614708992676        0.12366685164375
C           -4.14943079111146       -2.23486641375981       -0.44408723234317
C           -5.01795738029355        0.38985608968267       -0.56038583061566
H           -3.28059214721891        0.85260422599534        0.60188849176219
C           -5.31453951178886       -1.92063465863978       -1.11961052758933
H           -3.80064767671821       -3.25656527641638       -0.40932632285939
C           -5.74975210488087       -0.60749927937560       -1.18127686256878
H           -5.34980412152763        1.41651325255028       -0.60821647420838
H           -5.87896251429253       -2.70151540836044       -1.60759258415026
H           -6.65520089831795       -0.36207489175827       -1.71673417098748
C           -2.44431248896903       -1.70134610480441        2.43440339405296
C           -1.31738431575665       -2.26129067568665        3.14795270348231
H           -3.32172802882565       -2.33827257264661        2.57435867538991
H           -2.66222608452148       -0.70310594251850        2.82073873530097
C           -0.37708409375677       -2.73574668590861        3.71533809086225
H            0.44110582367526       -3.14873595357835        4.22490381380507
Cl          -0.79159614768888        1.58622202390303       -1.59490065071623
Cl          -1.08019972726844       -1.47167211962445       -1.97243925189447
O            0.58855458898074        0.96363808913169        0.79347532537991
O            1.19716576582972       -0.71903285778516       -0.94860957494795
C            2.43224483158483        1.87985503611568       -0.27967695779505
C            3.08446543777372        0.61952323355196       -0.30159073932806
C            3.02168831307622       -1.75275960741698       -0.00604145729944
C            0.66932575244015        3.23743776159200        0.54476492718930
C            1.23656404992536        4.38083511694667        0.04343798601326
C            3.02066342213057        3.04594099855114       -0.82242373927880
C            2.42643091750102        4.26748613375866       -0.69603564495181
C            4.49289241216859        0.53680564395455       -0.22469992014976
C            5.13500772580044       -0.64178442956725        0.01605758933964
C            4.36769977492154       -1.82001562843875        0.18785709401276
H            3.93089136247199        2.93888251556725       -1.38889655120918
H            2.86337543685642        5.14432015157351       -1.14394671684576
H            5.05564828318812        1.45340917875362       -0.29290267096487
H            6.20706447663810       -0.68566817454700        0.10345043029016
H            4.83473861971099       -2.75407143952405        0.44910989247629
N            1.22491772111086        2.02462888743766        0.36014855851593
N            2.39288385143148       -0.58700553676997       -0.30991793949213
H            0.76984739663551        5.33603095256227        0.21037366802628
C           -0.52378216261493        3.29639511802253        1.47513581539329
C            2.16453790284642       -2.99966193688456        0.02552934899714
F            1.03301284379485       -2.85478699798763        0.71086406403622
F            1.85121859308570       -3.42879895694060       -1.19996822264710
F            2.83296556509373       -4.00778267031398        0.61333207358191
F           -1.59583725739083        2.61077093634930        1.10485666905842
F           -0.92916581688130        4.56770762024912        1.63230908718962
F           -0.17942310424619        2.86671002318602        2.69921372382284
