51
 energy: -112.026218949576 gnorm: 0.000502409349 xtb: 6.5.1 (b24c23e)
Si           0.94854004382116        0.25555602944634       -0.02075768325666
O            1.54187577046987       -0.91186810243311        0.91577463718724
C            1.96304754584006       -2.22411584435647        0.58792037156281
C            3.39640391300625       -2.22228650865228        0.12285870275839
H            1.31877447215087       -2.62571616196583       -0.20052980557403
C            4.31469314078854       -1.34926342117567        0.68912305796396
C            3.81368971269920       -3.10752301877248       -0.86148311521641
C            5.63323672152290       -1.35664509007366        0.27154857078218
H            3.98532137993016       -0.65531135536266        1.44772385661285
C            5.13427372335558       -3.11890165644326       -1.27325116200206
H            3.09974345396412       -3.78469205823779       -1.30791503891610
C            6.04581020215169       -2.24293451036165       -0.70849817333748
H            6.33963944500865       -0.66902150060945        0.71232515584452
H            5.45109643439207       -3.80861437169268       -2.04151908521159
H            7.07516038612770       -2.24871245400952       -1.03497840163041
C            1.80232884617238       -3.09061068574497        1.84984348615519
C            0.40373451752373       -3.24728299924574        2.18607901117437
H            2.32784429951626       -2.60520107202345        2.67565248575390
H            2.25117171965051       -4.07025346954721        1.66760629165824
C           -0.76394232349416       -3.34968302526238        2.42486064612348
H           -1.78174488113456       -3.45986306062583        2.65173553122421
Cl           1.07056025987579        1.75544783090681        1.31382511521388
Cl           1.96785603133741        0.39850619175173       -1.72327678776414
O           -0.37497398004323        2.07012245920813       -1.38785368889181
O           -0.62617875516180       -0.26043809673088       -0.08718040168776
C           -2.01616363745327        2.37230663072523        0.17956418972186
C           -2.59464431073596        1.11111163095378       -0.17738843826409
C           -2.41554058331122       -0.94390777390047       -1.38898016053301
C           -0.43366120180313        4.05411997965991       -0.29818694553405
C           -0.95858990368356        4.89556738913926        0.65805794776776
C           -2.55531329323287        3.20361788609770        1.17064728285383
C           -2.03309372521544        4.44906645227245        1.42187302312626
C           -3.96900707824848        0.88671590866277       -0.08217350584186
C           -4.56611480515172       -0.21809358837527       -0.64304980622717
C           -3.76354569717180       -1.12083145677818       -1.37071675960829
H           -3.37513630351462        2.83050032219899        1.76174327058425
H           -2.44504511425596        5.07366686413166        2.19646003867703
H           -4.57700337406267        1.63934981186804        0.39343301321882
H           -5.62864243099120       -0.37284745727951       -0.57561772223695
H           -4.20663163682894       -1.93738260393857       -1.91683264115749
N           -0.92449538013951        2.81690559490846       -0.52648748986714
N           -1.80137552720103        0.10651775006832       -0.74155566407660
H           -0.52782820586510        5.87149402698571        0.80425307628296
C            0.70657163566573        4.47543467487843       -1.19434366735358
C           -1.50536135437937       -1.90265910509326       -2.10648607121573
F           -0.52711276491985       -1.29683396218978       -2.77981687113759
F           -0.91452752521216       -2.78778017541133       -1.28220120321160
F           -2.18649181940725       -2.63953192249016       -2.99855067755983
F            1.79476175748533        3.71581689297054       -1.08731011571870
F            1.09488263758707        5.73092864284758       -0.90854474018421
F            0.34884056257407        4.48764453910473       -2.48534993902247
