63
 energy: -99.362231830879 gnorm: 0.000725677546 xtb: 6.5.1 (b24c23e)
Si          -0.00836133021631       -0.37517202671990        0.18299343252121
O            1.57522531725878       -0.63269021867668       -0.17683929172363
C            2.31089514348806       -1.79737145540388       -0.42068534206045
C            3.72303475576678       -1.40294092654825       -0.77530890986465
H            1.84977000599868       -2.34352705601966       -1.25722884707874
C            4.35407163846108       -0.39297192675975       -0.06130056338654
C            4.41321334880290       -2.05336535714713       -1.78821820726161
C            5.65536148369840       -0.03399671080285       -0.36133392579935
H            3.80875984919055        0.11125096549758        0.72151875023808
C            5.71788071419395       -1.69807765715553       -2.08349490207215
H            3.92509082785161       -2.83865174280137       -2.34792365849465
C            6.34102625859855       -0.68726999365307       -1.37175779418630
H            6.13974878488139        0.75473917302251        0.19658805069121
H            6.24738943140891       -2.20795534668032       -2.87483264144702
H            7.35790367027378       -0.40799920949559       -1.60572594301646
C            2.34024454175357       -2.72349671871953        0.81635763818277
C            1.07441617200798       -3.39400028067824        1.00675927989536
H            3.13026022956047       -3.46672592635774        0.67919827757125
H            2.56665618484712       -2.11620443281530        1.69595174429984
C            0.01137571691158       -3.93103937492323        1.12331595164111
H           -0.91168699958084       -4.41333146908571        1.24131596689520
Cl           0.29612207232903       -0.34381946458922        2.25398235946393
Cl          -0.74919550258548       -1.65078198023229       -1.33270912605761
O            0.06183878942402        1.14901650756587       -0.56026329871118
O           -1.72282945161167       -0.04494440579120        0.74289771171477
C           -1.90851153851195        2.45211519217751       -0.40618104041426
C           -2.78752383647801        1.38921205305906       -0.75547898182201
C           -3.59576763773036       -0.83990542299978       -0.38041159985629
C            0.21053533633772        3.22904201273347        0.45171223991059
C           -0.30250270345022        4.48786876378065        0.60977063596195
C           -2.38886042215226        3.77668322773440       -0.32781685315478
C           -1.61067002560714        4.78052396213635        0.16867069998005
C           -3.84069016262559        1.58978671444746       -1.67276558113632
C           -4.72994952704401        0.59217931279920       -1.94965309134903
C           -4.61604908203266       -0.63464468637057       -1.27740049132558
H           -3.41399227439966        3.96229289178405       -0.60330581760189
H           -1.99301702394598        5.78461431592726        0.25482703841414
H           -3.89277641683187        2.53426335749746       -2.18876061153341
H           -5.51406984651424        0.73882240848516       -2.67517621409485
H           -5.32765787231773       -1.41961032863096       -1.46216559312623
C           -3.49479760695850       -2.09328610505310        0.44468378170669
N           -0.56885944435149        2.26584896147364       -0.10245302483980
N           -2.71134531666422        0.15235793353575       -0.15098004949048
C            1.62643707985844        2.85603272729821        0.79226263024476
H            0.29710164022969        5.26143772777508        1.05425094612335
C            2.49309491170893        2.95527561292863       -0.46991882946942
C            2.20605299148988        3.71169244797744        1.91578202041147
H            1.62781291343965        1.81396798068746        1.12017277517843
H            3.52487560921151        2.71752250650862       -0.22658934715355
H            2.14914972316269        2.24763321229280       -1.21861312865561
H            2.45160984352025        3.96214633699869       -0.88159527268650
H            3.15485741325085        3.28739115616155        2.23346761202433
H            2.38946403882041        4.73115572227317        1.58445655804808
H            1.53707589683407        3.72850485636656        2.77236919766785
C           -3.66072716929618       -3.35554611646844       -0.39835794461764
H           -2.50901587345952       -2.12045363166021        0.91227219028256
C           -4.55012948515053       -2.02335047331063        1.55535502276301
H           -2.92445077244033       -3.36575962457700       -1.19714459691291
H           -3.50885805778555       -4.23103282631485        0.22802937708849
H           -4.65612526853306       -3.42193659765647       -0.82923929979711
H           -5.55155165259173       -1.97539348240328        1.13255259070336
H           -4.48017892236728       -2.90646577161349        2.18503153218329
H           -4.39107011134852       -1.14544629281656        2.17710780838622
