63
 energy: -99.363474280120 gnorm: 0.000997136969 xtb: 6.5.1 (b24c23e)
Si          -0.21718374927694       -0.62393097449769        0.07327555906549
O            1.01870033077840       -1.60991198501865       -0.32376319197003
C            2.24337058913834       -1.92021724626494        0.28906256932108
C            3.37493011129009       -1.17504491382095       -0.37178007823029
H            2.19746707467235       -1.66008249120278        1.35358324610688
C            3.32068169061190       -0.87530725696386       -1.72590907361763
C            4.49934187597908       -0.81828607996568        0.36149831002334
C            4.37941270124953       -0.23091186434591       -2.34073204055308
H            2.43752002088000       -1.14282939681359       -2.28531437099925
C            5.55991622402048       -0.17880049041359       -0.25558269981959
H            4.53990872407938       -1.04352826246565        1.41789318672624
C            5.50319243769160        0.11368892647792       -1.60869387847893
H            4.32968718200653        0.00002737722373       -3.39481099804064
H            6.43260102149869        0.09395749423915        0.32047592700962
H            6.33197692757284        0.61287380817821       -2.08946685392934
C            2.47085261552166       -3.43985516238201        0.15195893807844
C            1.48163008504324       -4.17160696506503        0.91237178473767
H            3.47385685426071       -3.68571533139498        0.51031844827252
H            2.39154737876566       -3.70793033156801       -0.90456843160931
C            0.64232677686337       -4.73188374669665        1.55499908190900
H           -0.08561124635689       -5.24612488135732        2.10765103124081
Cl           0.27314872627401       -0.46755087184511        2.15189032987605
Cl          -1.15490914273505       -1.35975093764880       -1.69618916585244
O            0.22025055336465        0.90368742132309       -0.54723808720113
O           -1.78744263929341       -0.10715479460217        0.71028268347709
C           -1.46745306827149        2.51229465971086       -0.11425245522756
C           -2.54960099923357        1.69373440831808       -0.55502937363104
C           -3.78756557981620       -0.36658347298814       -0.45176169677176
C            0.80791340869198        2.81685778106489        0.62800675662941
C            0.52902632941960        4.10425109215788        1.00167640493891
C           -1.70996727325813        3.86755063584705        0.19378353900851
C           -0.74354097073975        4.65445286035073        0.74848170727667
C           -3.55949410184516        2.22681313352524       -1.38208138148950
C           -4.63835978224300        1.47450420633934       -1.74722983884401
C           -4.76116661885132        0.16132956475916       -1.26183828907998
H           -2.70846869093001        4.24647477389218        0.04941135305103
H           -0.94982028476654        5.67827243591694        1.01464996421070
H           -3.42823703968593        3.22517369460416       -1.76608669290281
H           -5.39040290698443        1.87551951289154       -2.40763047151621
H           -5.61456345341261       -0.43362598998522       -1.53164724216748
C           -3.87760344430539       -1.72619726776701        0.18112938367790
N           -0.16147567864627        2.07278690365618        0.04212883631433
N           -2.72658917284074        0.39842613293013       -0.12067508947305
C            2.17982923037590        2.21402680776427        0.73956696006780
H            1.28921380448587        4.70074306915625        1.47286662566197
C            2.96943730188119        2.57981674834865       -0.52254118061569
C            2.91884073805104        2.65713148911470        1.99907161140427
H            2.08093244840381        1.12814501117539        0.77597341320931
H            3.96771930936395        2.15548774955377       -0.46658191265575
H            2.47762268587629        2.17857146328890       -1.40491533180612
H            3.04849235718056        3.66079716230972       -0.62174683898932
H            3.82873479486009        2.07112776943027        2.09766945591400
H            3.19765424960922        3.70686927512149        1.95338620235121
H            2.30419014013219        2.48673216858424        2.87877881495016
C           -4.71671518797927       -2.70511930243622       -0.63325350106265
H           -2.86617353031710       -2.13072385486991        0.25663699332662
C           -4.43652657320583       -1.56164697088957        1.60076857836198
H           -4.36715841649809       -2.72970135188513       -1.66211259653335
H           -4.61361975242966       -3.70188217931685       -0.21110691773327
H           -5.77127252231841       -2.43902909130814       -0.61328775304932
H           -5.42679807447841       -1.11068213972682        1.57063493897247
H           -4.51008890616837       -2.53370029375156        2.08085032666836
H           -3.78012389300440       -0.93254263799572        2.19670347201060
