63
 energy: -99.366084669381 gnorm: 0.000749937662 xtb: 6.5.1 (b24c23e)
Si           0.22583706077151       -0.23830504569272        0.57748574721357
O            0.93781136157716       -0.97890006862550       -0.67608135923385
C            1.86745380402877       -2.04045268718784       -0.64848291526072
C            3.15568815219000       -1.60279107341377        0.00010154595759
H            1.44010257889157       -2.87348440721733       -0.07692983768371
C            3.70928911724428       -0.37319000103129       -0.32965674921581
C            3.78601597356008       -2.40287449202833        0.94167979829769
C            4.87313328117033        0.05691410564279        0.28002123974410
H            3.20981847763026        0.25237961905798       -1.05466373125894
C            4.95578166864606       -1.97612880953584        1.54509803818129
H            3.34798434773506       -3.35129695361036        1.21443199430436
C            5.49985875550200       -0.74590357471739        1.21778308368603
H            5.28972730347313        1.02103312628323        0.02712851011739
H            5.43685133153988       -2.60132027305828        2.28276727907100
H            6.40684259998055       -0.40959606632659        1.69851712571331
C            2.11669723172254       -2.48263636499444       -2.10033431866744
C            0.93244251927872       -3.07237929439781       -2.68454762275192
H            2.93287179359040       -3.21009383811095       -2.11020010053310
H            2.41183505789985       -1.60861519566796       -2.68546601211987
C           -0.05915597024493       -3.56291759391660       -3.14016454470269
H           -0.91697625612001       -3.98876343608182       -3.56709491136329
Cl           1.20795598676775        1.19280779526673        1.73180089353389
Cl           0.54416750404148       -1.77607640647028        2.06850828566607
O           -0.26763013556760        1.00367966209001       -0.66013490369047
O           -1.41001831386370       -0.48053819714925        0.95124837118191
C           -2.01322837619364        2.27164497645026        0.23469234076874
C           -2.90671487384010        1.17492746316220        0.11988122504202
C           -3.25152795693582       -1.18180553454749       -0.26319216383332
C            0.11421743087746        3.25686313967454       -0.27226294046935
C           -0.32101375667872        4.47360286468631        0.19425874375204
C           -2.44217999064289        3.52080235547873        0.73534613529591
C           -1.60896582927929        4.60093595092288        0.73600901286649
C           -4.27846643555172        1.38595425154862       -0.14540468227183
C           -5.09249947068709        0.35128981292344       -0.50014118158508
C           -4.54933617513330       -0.94534399210662       -0.62595417474246
H           -3.42905092298233        3.58739664276369        1.16195774398950
H           -1.93180067159448        5.54521196957182        1.14429636293480
H           -4.65324083838758        2.39587438974176       -0.13136513915323
H           -6.13365647385201        0.51961777254001       -0.72286503864256
H           -5.16371253274685       -1.75003509684835       -0.98759865831567
C           -2.61352258032576       -2.54292016952894       -0.27875750359533
N           -0.71678158633675        2.19467804124068       -0.22817737952626
N           -2.49486814653703       -0.14683171494804        0.18344551897453
C            1.44985099154338        3.08451162919754       -0.94076810313035
H            0.33513269992530        5.32457920727233        0.15248540766041
C            1.34637129063246        3.62839206237159       -2.37116598461349
C            2.58061829271727        3.76391550530220       -0.17270273003275
H            1.66327666563503        2.01648821452054       -0.99486869488914
H            2.29519979769472        3.49459402447266       -2.88441747903376
H            0.57591120232976        3.09869103946874       -2.92671489212504
H            1.10301333371838        4.68887694794210       -2.36245015380389
H            3.53134852939830        3.51409818723189       -0.63681867978212
H            2.47558845086720        4.84578264551397       -0.18029918971696
H            2.59395337281640        3.41288790529021        0.85506945560914
C           -3.20436863805481       -3.44721210380804       -1.35823934266339
H           -1.54842246599132       -2.40818125749523       -0.49103971285047
C           -2.74919844028883       -3.19810022912543        1.10126704863000
H           -3.22708835561915       -2.93854940610707       -2.31912951912358
H           -2.58640275249692       -4.33667932156052       -1.44914279338631
H           -4.21208237072636       -3.76451223537958       -1.10025527943433
H           -3.79834550814360       -3.28775823555030        1.37662782415082
H           -2.30454850005977       -4.18920788470987        1.07886832709900
H           -2.23132264055244       -2.61233334667026        1.85464236377314
