63
 energy: -99.369620623747 gnorm: 0.000857035311 xtb: 6.5.1 (b24c23e)
Si           0.35215956061093       -0.98317015968096        0.59160719078564
O           -1.25445659509383       -0.77217097065787        0.40741812202485
C           -2.29332647400476       -1.68551785306466        0.14679637094130
C           -2.97662025476655       -1.33053552954995       -1.14830153362808
H           -1.87626090662668       -2.69608026327255        0.08049315053580
C           -3.18104740050906       -0.00038194970544       -1.48912846030873
C           -3.42448844089864       -2.32742561059056       -2.00431440855449
C           -3.81691366995885        0.33023967980379       -2.67218491211477
H           -2.82790089042532        0.77543323343427       -0.82610513458860
C           -4.07010667193853       -1.99647957885820       -3.18241757836884
H           -3.25777635553964       -3.36331306855004       -1.74765237427652
C           -4.26635680893024       -0.66764264759770       -3.51979793752064
H           -3.96301425796922        1.36940493954058       -2.93063955039907
H           -4.41540915475272       -2.77804971106311       -3.84314967478207
H           -4.76543531340346       -0.41088827863062       -4.44276219956243
C           -3.30495710930583       -1.64041064211690        1.31084884439938
C           -2.62640363907269       -1.88694581968700        2.56512408771202
H           -4.07153207580110       -2.39968894444974        1.13915216406385
H           -3.78165867803004       -0.65703528263185        1.33630667664263
C           -1.98844940234171       -2.06164606569371        3.56219796867861
H           -1.45172672445941       -2.23059176980235        4.44720490290014
Cl           1.27370541324173       -1.38869095950751        2.38306529493305
Cl           0.46235880846487       -3.01321822999754       -0.11359805471879
O            1.26067022144150       -0.60727987862801       -0.80059208959988
O            0.48994408943603        0.75102397981628        1.12667956035441
C            1.61251106600859        1.71111511038681       -1.19780092937984
C            0.33417338522001        2.13469804737183       -0.74787718822322
C           -1.33068746681868        2.17913013036538        0.98181084118080
C            3.43551963856388        0.13420779265355       -1.09460331571968
C            4.28169077145209        1.05971354230438       -1.64319373111267
C            2.47168873280065        2.61185161376257       -1.86527838026473
C            3.77897273983529        2.29841551050988       -2.09336973274944
C           -0.40407176940078        3.11402209674584       -1.44899168731952
C           -1.57177512577839        3.60561234864417       -0.94462456867444
C           -2.03016651883295        3.14932244022119        0.30307915528691
H            2.08970685938316        3.58545930487074       -2.12414433691850
H            4.43794935105421        2.99972798990555       -2.57898414933657
H           -0.04310406930235        3.43225836572235       -2.41274777490731
H           -2.14461139509397        4.33702321913548       -1.49213557037139
H           -2.93212367711879        3.55555169860794        0.72398297864402
C           -1.72251584938108        1.66235081965620        2.33719345063982
N            2.12012943281880        0.44321353522961       -0.96144024896352
N           -0.19519844926058        1.68786215573521        0.44397212896670
C            3.86733764882429       -1.24597560750310       -0.68526061762311
H            5.32749205552683        0.83500119660926       -1.74986311786488
C            3.64042896058508       -2.21717964219246       -1.85047715736527
C            5.32178245237702       -1.29048167092834       -0.22227085326634
H            3.23598090572756       -1.56566390588412        0.14793688560144
H            3.95126089288373       -3.21555377767321       -1.55662146764406
H            2.58735199490493       -2.25526487190757       -2.11320934518622
H            4.21590824014341       -1.90753606445032       -2.72090354662714
H            5.51798958041817       -2.25649069300992        0.23503462418540
H            6.00776947120342       -1.16909651789598       -1.05731362398592
H            5.51832078348769       -0.51672174806044        0.51592224711227
C           -3.17720376922080        1.95080235346353        2.69648913209835
H           -1.56965865673266        0.57996740652119        2.33763171979891
C           -0.78498715158303        2.26684618931529        3.39080823205384
H           -3.85053587180204        1.65031982846105        1.89679948197441
H           -3.43934878760633        1.38963259702286        3.58991720330130
H           -3.32876295327663        3.00807678987204        2.90462461479619
H           -0.85377252079624        3.35350330591435        3.38516216896059
H           -1.06552734052030        1.90293725060796        4.37522585529440
H            0.24282713994403        1.97290824104013        3.19812319805441
