63
 energy: -99.369934931216 gnorm: 0.000628252669 xtb: 6.5.1 (b24c23e)
Si           0.15182108480138       -0.62628414960888       -0.35028095638757
O            1.31569690494676        0.08950466690524        0.54095278850922
C            2.24137876180007       -0.47939093513895        1.43681211973713
C            3.27512861286568       -1.31847621046166        0.73028739640349
H            1.69803569179908       -1.09968899698155        2.15914509289173
C            3.73643636169592       -0.95473031748785       -0.52629769584281
C            3.79293409920999       -2.45148891772790        1.34231022763229
C            4.69338006680320       -1.71871186172377       -1.16950683377081
H            3.32830088960418       -0.08108817293526       -1.01312518142722
C            4.75498800689618       -3.21103855044463        0.70238212778014
H            3.42638440464824       -2.74636716527348        2.31463866714669
C            5.20675424687032       -2.84703920554390       -0.55489170455512
H            5.03446756080654       -1.43258552299701       -2.15346151176188
H            5.14568741178672       -4.09642931714033        1.18216677764846
H            5.95165390912873       -3.44626912260274       -1.05785033669036
C            2.93687428368415        0.67739802314663        2.18013369290595
C            1.96722771213873        1.51925193218839        2.84519034036693
H            3.63063721153358        0.25665240088276        2.91210519473788
H            3.50405763388275        1.26938288500286        1.45741258543867
C            1.12494496240931        2.19624074673600        3.35923860317756
H            0.40725618612390        2.79373727928237        3.83590857570018
Cl           0.40641851684445       -1.13514308165297       -2.32746437776121
Cl           0.46653424350635       -2.63579530469750        0.38153224984920
O           -1.37412910854002       -0.72849171684994        0.40683634464958
O           -0.30188765592030        0.99786286084129       -1.01837213534558
C           -2.75549251976507        1.19409481214044        0.22642388710089
C           -1.71181350133912        2.12695917163688        0.46493831321105
C            0.46385512941258        2.98022049374006       -0.07820646193800
C           -3.48093977149334       -0.97925817440118       -0.53067139420039
C           -4.76557412787725       -0.52115416125345       -0.64950976830896
C           -4.10211183563115        1.61918153142575        0.19322168167437
C           -5.09371279548976        0.78490420913790       -0.23021983947464
C           -1.91678213300915        3.25201445341694        1.29431247385651
C           -0.95324263291825        4.20687632798834        1.43190726901788
C            0.25034472407427        4.07794741702443        0.71954516579142
H           -4.31945685134419        2.64502869851567        0.44030746102743
H           -6.11596203755678        1.12315091281970       -0.28002697278673
H           -2.83903523889406        3.31561456592189        1.84793140727797
H           -1.10603557308168        5.05615755496483        2.07909779650795
H            1.00611847015284        4.83732234922867        0.80196268579968
C            1.69221898951580        2.79763155158763       -0.92311509237361
N           -2.53026206392121       -0.14847345585517       -0.03164033448487
N           -0.49603852094626        2.03767931396686       -0.17902612221255
C           -3.07218839005656       -2.38729688379458       -0.85945846401012
H           -5.53003083743679       -1.16388984486699       -1.04686529561659
C           -3.13099916681955       -3.24219855765738        0.41262996168730
C           -3.92701328221830       -3.00369200480833       -1.96428309234686
H           -2.03537226671493       -2.37106950343913       -1.20347726721401
H           -2.84453237277318       -4.26275569597242        0.17620705382427
H           -2.43670445075569       -2.86165294380166        1.15580959545156
H           -4.13787689098556       -3.24135522624943        0.82618491741077
H           -3.46918834616641       -3.93493871011544       -2.28659040963288
H           -4.93109069986429       -3.22774236596967       -1.61173469483358
H           -3.98993441723326       -2.33922310723816       -2.82263895057460
C            2.88056148146730        3.62523597372791       -0.44221565834262
H            1.95603635080272        1.73934636394599       -0.87644534462128
C            1.35165741297270        3.13763894224677       -2.38025985389196
H            3.03859837837930        3.49542415934379        0.62580471293162
H            3.77810289222296        3.30586016829493       -0.96697392290761
H            2.73191152996553        4.68256717587520       -0.65073742392648
H            1.00377181057014        4.16621944392508       -2.45925306311737
H            2.23648682167928        3.02000813284405       -3.00024040042322
H            0.58004973377926        2.47070366599300       -2.75496560635253
