63
 energy: -99.367340342890 gnorm: 0.000366799074 xtb: 6.5.1 (b24c23e)
Si           0.26787070273682       -0.53478620482386       -0.37441143028124
O            1.34397305854703        0.49712542308680        0.28565000848816
C            2.42324813059267        0.34362840152497        1.18252713118188
C            3.46339812160368       -0.61197367989911        0.63990622835287
H            2.87198524692930        1.35113535879222        1.21953992595630
C            3.78874917372359       -0.51785350924152       -0.70860715785338
C            4.11165777650095       -1.55966743287026        1.41884212076865
C            4.72056919419001       -1.36626446771533       -1.27462591870937
H            3.28819745579540        0.21613795629506       -1.32293141691052
C            5.05233780479298       -2.40326461435981        0.85347441008027
H            3.88075130814102       -1.66522155058786        2.46662055168372
C            5.35711929031914       -2.31415005978470       -0.49256733530507
H            4.94552070766695       -1.28846715259590       -2.32796816020133
H            5.54121268892037       -3.14286120681244        1.47059963876555
H            6.08285041586091       -2.98277099306393       -0.93150745507695
C            1.90205485721885       -0.00006493439814        2.58562077327334
C            0.87494124838570        0.94116946675873        2.97511589119706
H            2.72456333781828        0.04843539533074        3.30252287719310
H            1.48129588605883       -1.00763331065628        2.57185059590900
C            0.02622394325347        1.73701876196784        3.25479256627704
H           -0.71910672510300        2.42192548826434        3.52811393198539
Cl           0.42795879886695       -1.19265361287273       -2.32020717774539
Cl           1.02440395942788       -2.37880578287169        0.46426176134583
O           -1.12725816940398       -0.83640423348611        0.56026958692673
O           -0.56905943589021        0.89421890252634       -1.12913133766031
C           -2.86018920663810        0.78051711965525        0.38894025483262
C           -1.99232420235000        1.90353958400733        0.42152329257294
C           -0.06018607509255        3.04827336589969       -0.42228872015920
C           -3.23357971532576       -1.55467038530611       -0.08783396966115
C           -4.58697784528853       -1.34930617317823       -0.09226530015052
C           -4.25922431822084        0.95201096686240        0.47904733054687
C           -5.11279069978474       -0.08576273049839        0.24899870338452
C           -2.31403144276310        3.05445419883855        1.17438802040920
C           -1.51514481099331        4.15919310524640        1.14200234426333
C           -0.37458458272584        4.15953985696914        0.32203940151565
H           -4.64096460200140        1.94292242104576        0.66123349980128
H           -6.18035409915675        0.05721178428144        0.29148936805219
H           -3.18170419361069        3.01938273540596        1.81263920529936
H           -1.74889077808490        5.02801397977027        1.73714042381925
H            0.24942333015870        5.03325938263069        0.27193764704611
C            1.07922039127794        3.00551673196569       -1.40112473974884
N           -2.41123598280024       -0.51945852917684        0.22110374960597
N           -0.85375341081334        1.96006623919086       -0.35280300049283
C           -2.60023562458772       -2.89394157399075       -0.33960873470258
H           -5.25179733247903       -2.15698623269592       -0.33935901617632
C           -2.36377041107888       -3.60075523087314        1.00080630973187
C           -3.43015862693415       -3.77134887381926       -1.27364592723481
H           -1.62694697660289       -2.72880243275358       -0.80772433881832
H           -1.89718354110974       -4.56552680642584        0.82454373862958
H           -1.69725173585405       -3.01328777002911        1.62534399536390
H           -3.30679396211378       -3.75098527778712        1.52307461266857
H           -2.83953861566360       -4.63645308917991       -1.56268800884787
H           -4.33295472951297       -4.12974800040316       -0.78459327176816
H           -3.70391071785509       -3.22823427115584       -2.17492240666776
C            2.19304640246142        3.99471708572790       -1.07233431227244
H            1.49276595550991        1.99631873271945       -1.37879216273985
C            0.52066819261675        3.25633320640026       -2.80791036751369
H            2.50364071523524        3.89616144188187       -0.03480492493497
H            3.05217730549903        3.79208034858286       -1.70723398741259
H            1.87860105415929        5.02019089509922       -1.25373260960753
H            0.03436069169517        4.22906288206951       -2.85786503643071
H            1.32945242359603        3.23192977043573       -3.53330744022263
H           -0.19845399972040        2.48502013407990       -3.07046123162422
