63
 energy: -99.366902633083 gnorm: 0.000260083862 xtb: 6.5.1 (b24c23e)
Si          -0.19353315456202       -0.35969610113406        1.12168303850489
O            0.06192866923168       -1.73056118181047        0.29041286311388
C            0.84047503330696       -2.00192911545621       -0.84911418944178
C            2.31588158862553       -1.99171703565436       -0.53210877792930
H            0.63124525306839       -1.24520951556936       -1.61487734440921
C            2.77324688145083       -2.22362428784020        0.75695693576057
C            3.23461231011709       -1.76287705509175       -1.55012383897353
C            4.12975537148315       -2.19696054146067        1.03063230152949
H            2.06283915297870       -2.41313638171214        1.54647537876810
C            4.59015432375500       -1.74868635929781       -1.27728152195200
H            2.88144520760115       -1.58863199945560       -2.55711632933994
C            5.04023792846048       -1.95811682141773        0.01612127198811
H            4.47397774016501       -2.36480913972610        2.03989459197409
H            5.29748359324583       -1.57023443420319       -2.07475057652884
H            6.09878348825079       -1.93721605551008        0.23024803563911
C            0.42092414841301       -3.39161920724107       -1.37169356390073
C           -0.80397999669120       -3.32132562355623       -2.13651112559646
H            1.21659761955341       -3.79615216233667       -2.00295931042184
H            0.28304654736159       -4.04741008302881       -0.50904748034017
C           -1.79974510285752       -3.21942136848729       -2.79229374192942
H           -2.67383690356123       -3.16569151222864       -3.36946971605128
Cl           1.18762038966297        0.72681293510523        2.23811593792842
Cl          -0.85055688084138       -1.48900420348429        2.79381198462121
O            0.22643551709535        0.63065062606814       -0.39749199894384
O           -1.72320634131303        0.37464158832636        1.13395245809093
C           -0.82468477117363        2.71139945118308       -0.29466106836601
C           -2.10193396028873        2.10749537576782       -0.44901781127321
C           -3.53102956398760        0.16671682499925       -0.29787619011258
C            1.56762255311192        2.52363765578999       -0.28877899178051
C            1.68708424221441        3.89007733417845       -0.20615947427666
C           -0.68932655703366        4.11367639201103       -0.20665605450928
C            0.54173946139210        4.69811225207914       -0.14094836621836
C           -3.11786474604435        2.75764462590531       -1.18321762126301
C           -4.27814689245279        2.11560634735369       -1.50073741754925
C           -4.46237817749181        0.77700457615744       -1.09369048471646
H           -1.58557193600015        4.70768537784022       -0.13940104277073
H            0.63998018836019        5.76725303983277       -0.04247315799180
H           -2.92499934552028        3.75273533952676       -1.54869222727654
H           -5.03951353358371        2.60780654702767       -2.08381954774386
H           -5.34703853966142        0.24394256490497       -1.39167090562527
C           -3.69452252509961       -1.21702303841469        0.26519126781076
N            0.33799608399708        1.96800907651508       -0.31406576145181
N           -2.41888223173487        0.85815461963997        0.05991668903860
C            2.76341748363404        1.63106828310139       -0.47108353219043
H            2.66576755584628        4.33540133996743       -0.18883316901304
C            3.23180727853400        1.74147314101158       -1.92683087385905
C            3.89881777621834        1.96572727592459        0.49295685795305
H            2.45965442593215        0.59985734455450       -0.28795736056153
H            4.07682327696014        1.07717730509154       -2.08517769029092
H            2.43482830418245        1.45603299045383       -2.60996139352188
H            3.53771591579057        2.76003681274628       -2.15629805592813
H            4.67349048853105        1.20850567226889        0.40306846997025
H            4.33935359656530        2.93455468632312        0.27212052499202
H            3.53207336666589        1.96333666977959        1.51506735310154
C           -4.55617096420575       -2.11156751651486       -0.62224154417437
H           -2.70176572366038       -1.66872645052633        0.34555867175022
C           -4.29176709223773       -1.12773536623487        1.67547621261272
H           -4.22172013940001       -2.06624539085613       -1.65488269801721
H           -4.47030932363811       -3.13931035605191       -0.28006533447719
H           -5.60453094228710       -1.82620590565770       -0.57274477295956
H           -5.25924596281518       -0.62963933968387        1.64705458229699
H           -4.41966915661121       -2.12818347789026        2.07833725802648
H           -3.62675429700932       -0.58205704390779        2.33791837820648
