63
 energy: -99.366369298941 gnorm: 0.000330519167 xtb: 6.5.1 (b24c23e)
Si          -0.09308741810278       -0.31957973251483        0.91808868850998
O           -1.54077476993790       -0.00867765465599        0.23315256532788
C           -2.69748094959362       -0.78054203138681       -0.00562638490216
C           -2.41430540743273       -1.86434653799647       -1.02281645751917
H           -3.39707954251658       -0.05833655917476       -0.46050658821131
C           -1.63419773076160       -1.52526685630802       -2.12309027228234
C           -2.89382032608840       -3.16158393491888       -0.91617006674235
C           -1.31948896449129       -2.46550586628425       -3.08504662226270
H           -1.26163577247973       -0.51426907581078       -2.21246645517248
C           -2.58517226174317       -4.10113703333637       -1.88499047102742
H           -3.49703112697836       -3.45899993616832       -0.07381413542972
C           -1.79546614176456       -3.76012649874276       -2.96797524574666
H           -0.70214527458576       -2.18714727948052       -3.92722891689169
H           -2.95816951743399       -5.10983831160069       -1.78494508173779
H           -1.54938062803834       -4.49927788586667       -3.71620860462205
C           -3.31435882978718       -1.28093061493407        1.30912321446376
C           -3.41625258840425       -0.19868990428000        2.26409191930871
H           -4.30939759397685       -1.68450508157900        1.10820893633549
H           -2.67707027010599       -2.06138791819678        1.73071800498711
C           -3.45707259051013        0.71729103056519        3.03312206041677
H           -3.49943022118065        1.49583373682656        3.73446052275375
Cl           0.33456841309991       -0.02619175011221        2.90472803555951
Cl          -0.27613387967755       -2.46363497257528        1.08821944436400
O            1.15011584007223       -0.66712130251227       -0.19997912832141
O            0.29343480455058        1.45880976175370        0.75841956626663
C            2.15761414594214        1.21278011702773       -1.24160269461137
C            0.93664528987109        1.91176245076803       -1.43767088293994
C           -1.10187941464186        2.79759675540368       -0.53254951902109
C            3.44976693493410       -0.41967809525514       -0.02324812331125
C            4.60797574697202        0.10339524676582       -0.53222375276618
C            3.35258767298967        1.67119707813996       -1.83653196908503
C            4.55813637716458        1.13243927008989       -1.49605944684747
C            0.65468418999193        2.56671495690829       -2.65614658155003
C           -0.48683143597272        3.29765846977376       -2.80889752557891
C           -1.37120343322828        3.42698813426097       -1.72474915299082
H            3.29677842433257        2.50924190576795       -2.51164183507381
H            5.47186689042471        1.50550050167626       -1.92940982977250
H            1.33992433371071        2.43368609342766       -3.47697364865915
H           -0.71503983192240        3.77437100096713       -3.74886077495194
H           -2.25946713909372        4.02372735324859       -1.82636062677689
C           -1.94954715249334        2.95793110468789        0.69705716483052
N            2.26182776991315        0.09058934333284       -0.43617366599061
N            0.01882761513493        2.05545243622684       -0.41847743555114
C            3.41093041916596       -1.58814619904116        0.92078118676159
H            5.55805026300719       -0.28356433300578       -0.21110047037334
C            3.23409064089722       -2.88112751418238        0.11426774432263
C            4.65117666509884       -1.67066337332893        1.80706537440150
H            2.53908629732037       -1.47343744273129        1.56978757293398
H            3.20119563704271       -3.72961518588949        0.79155933022861
H            2.30160597439062       -2.85790140740321       -0.44246879834820
H            4.06201649988799       -3.01227059788587       -0.58020157021361
H            4.48310929786854       -2.41478983159275        2.58088103763628
H            5.52757401407532       -1.97077244838847        1.23735520546344
H            4.84770924162219       -0.71585142880201        2.28849388702246
C           -3.38847423246595        3.35920505808370        0.38748205430199
H           -1.96778254178292        2.00064912263933        1.22210802576111
C           -1.28069662978488        3.98779118694469        1.61658727276767
H           -3.82035181943844        2.70301008091826       -0.36416874097275
H           -3.98448928123126        3.27124639327257        1.29189367168633
H           -3.44976809457701        4.38849620304581        0.04036620204297
H           -1.18283844884796        4.94718749881579        1.11101846866588
H           -1.88330027142166        4.12428777151967        2.51015575635358
H           -0.29567086699173        3.64104153307846        1.91719156277798
