63
 energy: -99.366252421268 gnorm: 0.000407212876 xtb: 6.5.1 (b24c23e)
Si          -0.00757262618863       -0.34005629340374        0.65810578769108
O            0.25243623789154       -1.43559845600942       -0.51045189629924
C            0.97439683854631       -2.64560876748539       -0.38839454376044
C            2.43185081517959       -2.32428806815306       -0.17232798871054
H            0.58925742417801       -3.19856609309989        0.47766539336054
C            3.12373904554807       -1.57630623223339       -1.11683775699287
C            3.07233042103404       -2.69878335929542        0.99982276480931
C            4.44250606128184       -1.22200604765745       -0.89810657962585
H            2.61970420128293       -1.25904245307240       -2.01788673761924
C            4.39074195339399       -2.33926376613394        1.21972818373685
H            2.52867420566011       -3.25780029684868        1.74692874559509
C            5.07872977894601       -1.60288631844583        0.27109025306795
H            4.97497197690400       -0.64596568323601       -1.64182918057268
H            4.87892321106408       -2.62836943955277        2.13842815335718
H            6.10661470467170       -1.31997127142581        0.44539006326056
C            0.75578767134682       -3.46827795581205       -1.66652235449543
C           -0.59228854406009       -3.98688804080740       -1.74285389730725
H            1.46544491747678       -4.30020918505659       -1.67129172115901
H            0.94507005985677       -2.83315482568583       -2.53461275685053
C           -1.70860609114388       -4.41414913623437       -1.79324355604371
H           -2.68109773294826       -4.80102610470542       -1.85651347984443
Cl           1.47830050877658        0.63472312751898        1.75413581853215
Cl          -0.34829546584802       -1.73866475748724        2.27695750664821
O            0.10060071132596        0.88626757361460       -0.68459223902480
O           -1.58965469760391        0.16838444209931        0.98621770175438
C           -1.03870117944573        2.81693622777702       -0.03651072508391
C           -2.28594969228961        2.14560978903276       -0.13933561434721
C           -3.55258625682736        0.09420830302250       -0.23939605154224
C            1.33066539485446        2.83486433181012       -0.41380686987378
C            1.38642631331195        4.16717124519045       -0.08221360664191
C           -0.96834232118880        4.18259079556135        0.31496600166848
C            0.22372584651003        4.84600527079281        0.31446715149696
C           -3.43482617831818        2.83888279427298       -0.58023679239005
C           -4.58335948217637        2.17259722385682       -0.88876297341167
C           -4.62107764530918        0.76718308805620       -0.76729180910068
H           -1.87265078885981        4.67391686815759        0.63352327627616
H            0.27860014163135        5.88062528381563        0.61295874754162
H           -3.35866904078595        3.90192898631936       -0.73818560499347
H           -5.44861208681540        2.70226487608086       -1.25293478841004
H           -5.50078142568109        0.22904001176411       -1.07030953597915
C           -3.55152577033694       -1.38392085945975        0.03332073002388
N            0.14435688353815        2.19328713623401       -0.37072722017753
N           -2.44758226603867        0.79468833912569        0.12290533461303
C            2.52580274175730        2.08576605404991       -0.93439326694281
H            2.32791628081240        4.68506759641336       -0.12014338269887
C            2.68109457853321        2.40454865639092       -2.42643249972902
C            3.80130027336933        2.41436494449495       -0.16337101802295
H            2.33464186731703        1.01698090487506       -0.83251990389721
H            3.53296320205187        1.86294851626986       -2.82906081439756
H            1.79053396943818        2.10576756591249       -2.97448844169233
H            2.84265578579425        3.47004146702426       -2.57785713762970
H            4.58989876752159        1.73191315797364       -0.46842898916098
H            4.13673471451890        3.43036685123741       -0.35603442937249
H            3.63384293958941        2.28611118650158        0.90203644682001
C           -4.46975065867935       -2.15626459480118       -0.90996140186408
H           -2.53073405287473       -1.75308702526011       -0.10428545226016
C           -3.95762600307875       -1.63206931108085        1.49205453458158
H           -4.24377816512887       -1.92693929888885       -1.94851341542486
H           -4.31894411100791       -3.21986188598452       -0.74996644348607
H           -5.51656322955508       -1.93622754382289       -0.71375925818059
H           -4.95119204931452       -1.23041489439146        1.68280553837937
H           -3.96310799780355       -2.69994351333133        1.69122445172756
H           -3.24873388560879       -1.16756313636965        2.17045955007584
