63
 energy: -99.369699120273 gnorm: 0.000635206276 xtb: 6.5.1 (b24c23e)
Si           0.05935122547142       -0.72991587490477       -0.28392459855879
O            1.26582882852403        0.10351659082930        0.43411593150762
C            2.21530898273600       -0.32796945093445        1.38054101899540
C            3.29145465292367       -1.17890465860181        0.75728900901952
H            1.70376850760749       -0.90359109640456        2.16049454470040
C            3.74507013378954       -0.91425456665770       -0.52652988458764
C            3.85475018232288       -2.22494990413782        1.47506567564212
C            4.74258166003423       -1.68889953879128       -1.09036970799100
H            3.30101044798300       -0.10924240738851       -1.09299285649388
C            4.85697872443889       -2.99480701258585        0.91408940918812
H            3.49360439516448       -2.44411226845092        2.46916217741129
C            5.30301222656495       -2.72868704810045       -0.36959144016126
H            5.07987264035183       -1.48087724847027       -2.09517450169116
H            5.28438099602614       -3.81156979181656        1.47700189813684
H            6.08039299831142       -3.33569861007466       -0.80985994815181
C            2.84146830192446        0.93050755630103        2.01070880677666
C            1.83257946548472        1.72406037959507        2.67660465049534
H            3.60512142131144        0.62140408136779        2.72863869605494
H            3.31589447918353        1.51954242175570        1.22193700730171
C            0.95954066279188        2.34806244457391        3.20627986926550
H            0.20979238549976        2.89930627846226        3.68940629585077
Cl           0.19304579024379       -1.45852143227287       -2.20280357079954
Cl           0.45612525870952       -2.63441156459685        0.64574594315027
O           -1.39786128770020       -0.75868634621677        0.59903731949353
O           -0.48087925839070        0.80323751722839       -1.09598444303474
C           -2.74249489085357        1.19696847691796        0.43401589649615
C           -1.66197352768265        2.11816051491570        0.43316768853388
C            0.42545707457011        2.85164609965723       -0.49583251340566
C           -3.60458580853992       -1.00255507146695       -0.06117217643433
C           -4.88497033362397       -0.51989815823326       -0.03445883135201
C           -4.07365158410041        1.65259155072928        0.56255557690273
C           -5.12864012974510        0.81749425482031        0.34262853763412
C           -1.72481118607186        3.32255605298324        1.16917665130316
C           -0.73418248231957        4.25489616855495        1.07602227540920
C            0.35002642482874        4.02509532619433        0.21383196751351
H           -4.23874329242959        2.69749363631921        0.76649980578702
H           -6.14202296239567        1.17719020021469        0.41735813894695
H           -2.55589716680527        3.46728766144215        1.83953879748720
H           -0.77544690951266        5.16421407510677        1.65451367484234
H            1.12192370343363        4.76592356390626        0.11273425147076
C            1.50471514298910        2.55245124456510       -1.49719398468625
N           -2.57999567146805       -0.16781457059757        0.25111176309964
N           -0.55377080540265        1.93363733857376       -0.36400242223333
C           -3.26429102833659       -2.43608708481628       -0.35802877303731
H           -5.70810215215622       -1.16493925710945       -0.28320993999819
C           -3.16865049164175       -3.22235024501309        0.95531389268082
C           -4.26739647696397       -3.09000290689030       -1.30573290731223
H           -2.28094087017284       -2.45940199874985       -0.83487464388575
H           -2.93975214606186       -4.26184391327583        0.73910778887625
H           -2.37225458626183       -2.82467926476516        1.57720592623901
H           -4.11013151398942       -3.17118861276627        1.49909224001862
H           -3.87119978655290       -4.04695342905371       -1.63449223247336
H           -5.21874446627892       -3.27267664493513       -0.81157325083656
H           -4.43467962315876       -2.46983377300610       -2.18311124777381
C            2.77293604657944        3.37319915268929       -1.28470796248831
H            1.74772522923186        1.49215462831832       -1.40223106654412
C            0.94416919798170        2.78249162861680       -2.90718907810127
H            3.10114501600452        3.32659088850542       -0.24904703428131
H            3.56662679634618        2.97905473310609       -1.91515758308516
H            2.61661952272533        4.41476671390853       -1.55684825239390
H            0.61690485271146        3.81443668830787       -3.02217928119224
H            1.71363191172256        2.57524716510771       -3.64601197166088
H            0.10413815209941        2.11907871751754       -3.09347802157828
