63
 energy: -99.361762574089 gnorm: 0.000739782103 xtb: 6.5.1 (b24c23e)
Si          -0.03855434096344       -0.39015549407132       -0.02290540921101
O            1.31098741226125       -1.25556213246084       -0.22688767025421
C            2.36531360896478       -1.64162690325766        0.61549784156831
C            3.68761052178991       -1.39448572367262       -0.06357647562253
H            2.31923181045610       -1.06918417898018        1.54958886223502
C            3.77677898925447       -1.34034695634954       -1.44730120766880
C            4.83676076448799       -1.23489161017469        0.70087074346689
C            4.99915706583209       -1.12271052107330       -2.05864652446416
H            2.87952882773559       -1.45738165775006       -2.03509218124583
C            6.05881037991227       -1.02600666587817        0.08793268877563
H            4.76918650461291       -1.26919866219076        1.77915907084189
C            6.14231111582309       -0.96785184747644       -1.29354926412013
H            5.05892381829469       -1.07585548559041       -3.13622300055204
H            6.94775961464287       -0.90305035834686        0.68951334910895
H            7.09665620167883       -0.79947297499280       -1.77099059093559
C            2.19029966680288       -3.14065488514559        0.93826053737894
C            0.94095195376294       -3.34798009292342        1.63709930233731
H            3.02843357180869       -3.47906818631551        1.55203927389886
H            2.18144390714580       -3.70020756490735       -0.00089351749316
C           -0.11524114528413       -3.44547598695929        2.19100052846926
H           -1.02612485721046       -3.55237688730946        2.69939955162812
Cl           0.49699711743300        0.37214210887800        1.96316180491102
Cl          -0.73089186743158       -1.31204260002610       -1.84893386117748
O           -0.07229563126957        1.12254741096485       -0.80056329447466
O           -1.61893189798666       -0.39917504942432        0.67228591499636
C           -2.02084354566938        2.25472511156075       -0.11936427171965
C           -2.89457238987785        1.18296587630222       -0.48301275111898
C           -3.51688450605872       -1.14609595756607       -0.45391041373126
C            0.17798045884644        3.19390276696951        0.22145569055927
C           -0.37473227356891        4.36367417751119        0.67278683374961
C           -2.57020448063367        3.48689075066051        0.29101080542284
C           -1.77413340680455        4.52107794117970        0.69109003559139
C           -4.08645700080487        1.45913032309467       -1.18270030663360
C           -4.94854108631314        0.45977958246298       -1.53280593142555
C           -4.65660538181751       -0.86530253594164       -1.16269827617911
H           -3.64354786055462        3.56797037334001        0.34673825437486
H           -2.20588889473774        5.44574432915535        1.03828563889676
H           -4.26788777119826        2.47523046706284       -1.49298353460883
H           -5.83888427684847        0.67545617757524       -2.10111053441309
H           -5.32559649235480       -1.66071444722281       -1.43702400956580
C           -3.18411417586335       -2.51680484025495        0.06386440617386
N           -0.64005759111390        2.19768201857354       -0.18863553976182
N           -2.69230121106192       -0.13267426613899       -0.11460171624171
C            1.65663847165217        2.97271112459727        0.06811932220619
H            0.26030516262242        5.16400411028955        1.00645900780996
C            2.05217695393278        3.26194259904357       -1.38555380555280
C            2.48513906857069        3.80975445860133        1.03767710052227
H            1.86216872780169        1.91989281954221        0.27380404843222
H            3.11735248850041        3.08972854742113       -1.51492271445042
H            1.51322968859979        2.60571321291597       -2.06374974251436
H            1.82961902598186        4.29632873180122       -1.64145029817217
H            3.52254690739184        3.48940800916439        0.98586564657351
H            2.44675599537393        4.86726116808448        0.78662158209820
H            2.13412177457609        3.66679161512747        2.05605372068970
C           -3.63596939249667       -3.62402753907603       -0.88354193352489
H           -2.09989131557471       -2.59055815116560        0.17098920308557
C           -3.81762616796395       -2.67559134588195        1.45198385645124
H           -3.26253158805859       -3.42764604947698       -1.88454236589614
H           -3.22831669648968       -4.57300707397068       -0.54490465684315
H           -4.71938241201431       -3.71275126477494       -0.91059233568135
H           -4.89769736389165       -2.55279093129068        1.39589731538482
H           -3.60314923564137       -3.66768673469424        1.84104873852680
H           -3.41664031903953       -1.93382824915094        2.13894045905367
