69
 energy: -105.680901433323 gnorm: 0.000653232827 xtb: 6.5.1 (b24c23e)
Si          -0.08996783318431       -0.47307829070035       -0.00337560136744
O            1.02279516551823       -1.63462943598586       -0.12279977592037
C            2.09493499373930       -2.04789053827853        0.68732280601722
C            3.40378024109531       -1.68764861283447        0.03201673322862
H            2.02758006892055       -1.55835172172922        1.66565043486111
C            3.49680343060825       -1.58642317862494       -1.34916389585407
C            4.53209781573527       -1.46347675952123        0.81049797303954
C            4.70256202550804       -1.26005768519943       -1.94418862517130
H            2.61454504328008       -1.75039029195370       -1.94859226928355
C            5.73839497561250       -1.14559358481681        0.21339056331669
H            4.45901958522742       -1.53178945925704        1.88645647769532
C            5.82591568068037       -1.04247603894899       -1.16513525631947
H            4.76502742007273       -1.17814984866039       -3.01947664079697
H            6.61181934849993       -0.97290295925101        0.82540904990154
H            6.76807852379808       -0.79090124318882       -1.63002240535446
C            1.97982320997387       -3.57269284848455        0.87811694710125
C            0.80070310291763       -3.88601415913425        1.65542674271391
H            2.87368128035341       -3.94001807341570        1.38817556395206
H            1.90827079134419       -4.04229580760352       -0.10615117692486
C           -0.19302345338716       -4.08089587436388        2.29272293068851
H           -1.05205737560513       -4.26789451372483        2.86434194952733
Cl           0.38930228699616        0.09818963179757        2.06364948590719
Cl          -0.74373396357047       -1.10292358248847       -1.97617171566920
O            0.23542854969345        1.05225307204554       -0.67318242033756
O           -1.68591633733135       -0.36203963506026        0.59028400281934
C           -1.64036205146638        2.34338800740891       -0.11328442666249
C           -2.60497719410777        1.39379049809277       -0.60985806972683
C           -3.71955040887283       -0.74767767539631       -0.51949693652534
C            0.60441562017097        3.19895618712955        0.17718466375195
C            0.08558144993707        4.35813523892471        0.69752775083906
C           -2.14290766740649        3.57290967056895        0.34800295056883
C           -1.30531822148508        4.54884984192241        0.80345459993781
C           -3.62965808132000        1.87428037512058       -1.44212222263590
C           -4.62362825840309        1.04322573678035       -1.87272963715650
C           -4.67847474757292       -0.27317293283002       -1.38085982577279
H           -3.21319107098659        3.69247348149293        0.40080192785053
H           -1.69217575538943        5.46118963562923        1.22664900268120
H           -3.56834767289166        2.89360869453835       -1.78813641251958
H           -5.36984480857583        1.38644813017517       -2.57046566236864
H           -5.49217575123979       -0.90236014507102       -1.68772253816469
C           -3.84397739155341       -2.09570249675454        0.17535193506158
N           -0.26234285805731        2.20430222510029       -0.15358547383217
N           -2.68876472437332        0.07570203038657       -0.20923423737649
C            2.08531552556589        3.05459691728685       -0.14860933911769
H            0.73605843592967        5.14998552146982        1.01628176626744
C            2.86480683008845        4.30979408039485        0.26645513343813
C            2.74002337465531        1.86034735556549        0.55710901926321
C            2.22076413889679        2.90355337470803       -1.67382812487526
H            3.90787409607146        4.17886102880105       -0.01108491863553
H            2.49749988375588        5.19816826050838       -0.24210899273931
H            2.82312655456214        4.46005306708781        1.34239105353661
H            3.82087117229054        1.92924870832759        0.45644380964767
H            2.48631965186122        1.85064514188432        1.61366540468053
H            2.43270013260534        0.91783352688345        0.12064656282242
C           -2.68726372036087       -3.04351013717799       -0.16805636198363
C           -3.89941269970396       -1.85086918352645        1.69338919316306
C           -5.14639234124915       -2.80013423175653       -0.22811151157561
H           -1.76330031958934       -2.75285103356248        0.31970754389132
H           -2.93443876478412       -4.04863759658907        0.16567193338000
H           -2.51743544666802       -3.06261925218183       -1.24086619209161
H           -5.14819638260692       -3.04367007803466       -1.28731654812681
H           -5.22666482321987       -3.73161006765496        0.32714619537981
H           -6.01901600105808       -2.19635448769883        0.01035600785844
H            3.27377783224533        2.83370871148021       -1.93417480296680
H            1.72448631426843        2.00579860402097       -2.02789357852567
H            1.79319046275575        3.76652434729556       -2.18162998660014
H           -2.97851317161917       -1.40752695321140        2.05815955788249
H           -4.72986993388278       -1.19215768764383        1.94271395853152
H           -4.04719278373875       -2.79919300049935        2.20387095177947
