69
 energy: -105.687671410932 gnorm: 0.000970531387 xtb: 6.5.1 (b24c23e)
Si           0.22858870916037       -1.06870986633258        0.75220249497598
O           -1.33411695281587       -0.97584704672657        0.28950096203707
C           -2.24657664395380       -1.97199512517522       -0.11920753656100
C           -2.89590617449097       -1.51821388750757       -1.40223723543501
H           -1.70159360002977       -2.90639159676979       -0.29087669517792
C           -3.62264274873200       -0.33531734527648       -1.44349128896458
C           -2.75542159180017       -2.26611527097482       -2.56336983933461
C           -4.20948350680583        0.08579126635696       -2.62291821307208
H           -3.71840277268620        0.26319044414200       -0.55041857384533
C           -3.34192180716641       -1.84436600568317       -3.74404775273487
H           -2.18236975942369       -3.18141274964900       -2.53846168091146
C           -4.07264163057660       -0.66900132510021       -3.77572195215691
H           -4.78023869643924        1.00270311786835       -2.64220455704329
H           -3.22923977174990       -2.43536678229263       -4.64065346707696
H           -4.53361678514221       -0.34135213015789       -4.69615534981228
C           -3.29337690069195       -2.21592512991118        0.98273489751052
C           -2.65049377553036       -2.65671098309224        2.20225757044821
H           -3.84589131639646       -1.29368846226470        1.17746016200620
H           -3.99299678251314       -2.97839789603522        0.63046703499578
C           -2.06637390248823       -2.99232176089701        3.19056995636927
H           -1.55415870515693       -3.28931389985666        4.05575123845684
Cl           0.76913357380888       -1.16489865068927        2.74180880812883
Cl           0.53809941671238       -3.17514761385118        0.42979698856797
O            1.39451991796439       -0.91852885229546       -0.46719016788955
O            0.24108150999933        0.72867464206798        0.99965702527228
C            1.13941653712319        1.14810338427973       -1.61578582701955
C           -0.15367380345508        1.51709229479795       -1.14851279225901
C           -1.55363387612347        2.18862515998532        0.68505277714653
C            3.30928206171577        0.12278801142270       -1.29753883562082
C            3.81440029409263        0.89277788402470       -2.31036962912229
C            1.66604911640027        1.84775448820239       -2.72498940628457
C            2.97214284993944        1.71504386115571       -3.08465605364394
C           -1.10407937798508        2.05068899900515       -2.04887585269669
C           -2.23305417377075        2.65506860829376       -1.58658644747112
C           -2.41914264566584        2.78848563580338       -0.20262743894966
H            1.03221337233949        2.54917992992782       -3.24025794936815
H            3.37714293676022        2.26418287510544       -3.91895262679581
H           -0.94095054060656        1.93043924510348       -3.10651599198579
H           -2.97151863138998        3.04296578507492       -2.26932554075669
H           -3.26804183917387        3.34017226016246        0.15500946239441
C           -1.73682063674592        2.32465862640673        2.19064893491351
N            1.96917558704014        0.19852645329518       -1.02840005666947
N           -0.50284851401062        1.49724785519929        0.18605956448726
C            4.19786780730676       -0.79697632678387       -0.47421429851067
H            4.86228702061020        0.86998674262802       -2.54187553867854
C            5.68311398435302       -0.54888133826569       -0.77661882291767
C            3.98928627373550       -0.50660597421658        1.01789138665354
C            3.90713976335162       -2.26967048927489       -0.79976741680284
H            6.27910429172320       -1.16220732571697       -0.10531956362245
H            5.93803665699523       -0.83359497029277       -1.79448544722077
H            5.95633506025840        0.49062894030099       -0.60989465077380
H            4.65243717652796       -1.13550595321745        1.60559962978723
H            4.21876396209813        0.53508382556324        1.23479421054797
H            2.97730728585277       -0.71002718138437        1.34027636511770
C           -0.40716316632852        2.70791826769805        2.85821624761314
C           -2.74434732750940        3.43615694446441        2.52199521857378
C           -2.27548317839803        1.01649222510562        2.78184972830826
H            0.01142924577729        3.59527095223239        2.38596033200573
H           -0.58264243884228        2.92658622198536        3.90821437076149
H            0.31488585446666        1.90140611426432        2.79964308962161
H           -1.60055590451672        0.18844002124191        2.60827453611497
H           -2.40242777548998        1.12800739049371        3.85549275406601
H           -3.24202783215970        0.77574728099014        2.34427825963966
H            4.61948664326427       -2.90056600688105       -0.27449881459122
H            2.90898467507932       -2.56369543639418       -0.49820718888142
H            4.01238815723576       -2.44398835470773       -1.86889864343640
H           -2.45273360993135        4.38247095964567        2.07186112933401
H           -3.75131754072899        3.17922508382823        2.20263314726485
H           -2.77100310427695        3.57033293951027        3.60052486098331
