69
 energy: -105.679200303152 gnorm: 0.000896446411 xtb: 6.5.1 (b24c23e)
Si          -0.48437177751716       -0.54670948378934        1.26515381451603
O            0.29428359055254        0.79846683198358        1.74332725043136
C            0.45538285378512        2.10391968905515        1.22053362763629
C            1.68624410738917        2.13066519975657        0.33920608304020
H           -0.41751730259203        2.35514515873033        0.61014488456499
C            2.93804588604573        2.50178437421683        0.81306015156074
C            1.57299701837038        1.71574961719896       -0.98308387453093
C            4.04253664656032        2.47403277572524       -0.02210960515124
H            3.06461395765704        2.81126952848788        1.83774879728902
C            2.67791860129166        1.66911362135948       -1.81331203422773
H            0.60784588019004        1.41888116248370       -1.36202156634491
C            3.91819103019277        2.05631629039461       -1.33593274189776
H            5.00778620844025        2.77261977611967        0.35931834933194
H            2.56926203709788        1.33196641232814       -2.83440712441422
H            4.78320093419511        2.02875457192437       -1.98235739668617
C            0.52870777460623        3.07272998670656        2.41013178729621
C           -0.77078319889091        3.23016936991909        3.02842808095083
H            0.88953667677666        4.04528447504811        2.06448036502433
H            1.21752086597544        2.66450689801230        3.15306502065911
C           -1.85360901532374        3.34361608573213        3.52417171184830
H           -2.79480906494294        3.43968175933589        3.97654623494310
Cl           0.27645723624790       -1.52190798781283        2.99235453222815
Cl          -2.40313154142215       -1.34158927390173        1.60123529385157
O           -1.11151337278976        0.32814392312277       -0.21533292740297
O            0.38852193093831       -1.67757651835323        0.35043415109612
C           -1.53911784123162       -1.32800493322736       -1.77099863681318
C           -0.14335745832574       -1.59630368458660       -1.95540233050333
C            2.11579323855474       -1.98350200879620       -1.18893361001902
C           -3.29046522765380        0.16984232718353       -1.09051416991362
C           -4.19817560242538       -0.59916183820513       -1.77789905699802
C           -2.47736397140602       -2.08601087880039       -2.49507830724155
C           -3.80301408885121       -1.77111194496132       -2.44533163803983
C            0.28298932376330       -1.84640909303707       -3.27392567219071
C            1.59807729394978       -2.05859621489222       -3.55730765275230
C            2.51954178158893       -2.12049333302227       -2.49272981451625
H           -2.12902263349251       -2.95796118223007       -3.02440583017173
H           -4.54095168602260       -2.38913005150622       -2.93001355409454
H           -0.45184664545549       -1.78843654232391       -4.06069002528128
H            1.93801608615865       -2.18589409203848       -4.57191054223940
H            3.54940194109498       -2.31254692877597       -2.72448879370150
C            3.07269407961041       -2.24855855624998       -0.03488653499211
N           -2.00655431699797       -0.26703556346958       -1.02725565543224
N            0.80673686439040       -1.67748316395750       -0.94852026666344
C           -3.65501553329391        1.54434211958404       -0.54700187478394
H           -5.23183553018273       -0.31254668172867       -1.81433585532771
C           -5.10718232331352        1.90865638868737       -0.88376976804692
C           -3.50821859685360        1.65311692750132        0.97392026519690
C           -2.75168405252891        2.57050279500616       -1.25283195497481
H           -5.29943472646770        2.92201771212243       -0.53908463221024
H           -5.29072879511796        1.88242260256192       -1.95549602018190
H           -5.80562013905130        1.24751768382474       -0.37764593794067
H           -4.08861066818707        0.87612528760177        1.46342638731210
H           -2.47871192442314        1.56227645018223        1.29657958157754
H           -3.87243320909247        2.62474695519948        1.29949619168883
C            3.24314483428362       -1.01387772291885        0.85657534267027
C            2.55551116913500       -3.44305667768301        0.78482483845962
C            4.47130311722551       -2.62061442041996       -0.54927516362387
H            2.31924208142879       -0.72055867307236        1.33551204816372
H            3.95927176921987       -1.24001124150325        1.64236926831906
H            3.62037558800000       -0.17886059991684        0.27164787063869
H            4.91292501458552       -1.81085000373733       -1.12583201401210
H            5.11516060927082       -2.80375033649010        0.30726737605374
H            4.45045153740876       -3.52833581379271       -1.14786014704078
H           -2.92651574359399        2.55350139506176       -2.32767169178557
H           -2.97246847523740        3.56786362827887       -0.88082247484243
H           -1.70160266779337        2.36753594696649       -1.07121547334613
H            1.66097924918256       -3.18908248898087        1.34211570671667
H            2.34321489705181       -4.28790438139984        0.13187411313339
H            3.31783241829453       -3.74166041181171        1.49916124413937
