69
 energy: -105.680668570824 gnorm: 0.000876808519 xtb: 6.5.1 (b24c23e)
Si           0.39566504018897       -0.54132752394991       -0.28830822899471
O            1.21829840219082        0.64211123754461        0.48389131821998
C            2.29671164173414        0.64398819741937        1.39786665180354
C            3.48965100769891       -0.11614634779793        0.85536980899737
H            2.57424684650911        1.70998356702525        1.46965923757291
C            3.82971858332690        0.07030884638352       -0.47968160455552
C            4.26220753355422       -0.97658735036459        1.62304058804989
C            4.89870785185109       -0.59911315506153       -1.04350252782043
H            3.23531471489009        0.73180416747519       -1.09143239482709
C            5.33934654604309       -1.63978199082719        1.06105016026178
H            4.02652188968695       -1.15794972783173        2.65899411945660
C            5.66052185553312       -1.45801120753367       -0.27178136564905
H            5.13084129556627       -0.45105381460716       -2.08752242393876
H            5.92432559923411       -2.31245524107922        1.67098714606417
H            6.49536125782484       -1.98662496938076       -0.70758778152373
C            1.83635611082026        0.18460081620808        2.78918714003339
C            0.69947277431366        0.95446037282852        3.24154702916464
H            2.65587284179469        0.32189188598708        3.49837470333337
H            1.56187821209136       -0.87124836965554        2.74333104218312
C           -0.23755333699941        1.59980308837128        3.61173402743233
H           -1.05447107958091        2.15528958850020        3.96189093556287
Cl           0.94449296758392       -1.16935479539458       -2.17728457287714
Cl           1.34262688135174       -2.25128542262397        0.66891588341720
O           -1.00154676896047       -1.15306435518925        0.46222881630647
O           -0.56434523867028        0.72095678932224       -1.14011862590534
C           -2.76700337031261        0.43842995425848        0.47165981812932
C           -1.94622977071844        1.60563208439965        0.48103566348200
C           -0.31621562087747        2.99754967007822       -0.59293241645510
C           -3.18419682343755       -1.91906529869861        0.13588577238466
C           -4.52933566153495       -1.68728128235694        0.26344496707080
C           -4.14858428410027        0.62661777188233        0.68710035217672
C           -5.02623393913555       -0.40733033267475        0.57778729811043
C           -2.24836508184988        2.65373451479166        1.37302356301368
C           -1.55436893463909        3.82561882500332        1.32201209953463
C           -0.60956806574792        4.00462166254050        0.30334614699759
H           -4.50355549763970        1.62863457559492        0.86266085719639
H           -6.08611040079581       -0.25646051803116        0.70120476738306
H           -2.99210389074222        2.48024248670705        2.13300034753860
H           -1.73219090579175        4.61326309618336        2.03643799146736
H           -0.10545568102017        4.95105420045036        0.22614770667071
C            0.62995742466875        3.33571340909552       -1.74155693076640
N           -2.32585481833545       -0.86268542952590        0.26588293513760
N           -0.93114944725805        1.80664171014229       -0.43255382919258
C           -2.65222952492038       -3.32505343820168       -0.10339103063509
H           -5.23277926758542       -2.48779057682258        0.13959990984912
C           -3.79606053625312       -4.31098157434224       -0.38540298693822
C           -1.71308213036636       -3.35619550645523       -1.31835286358464
C           -1.92509900368751       -3.81567014868725        1.15858370508873
H           -3.36669427648690       -5.29051087630057       -0.58092395079565
H           -4.46108381756246       -4.41337911561537        0.46884226573708
H           -4.36814663005797       -4.01522908473170       -1.26191624450049
H           -1.63661155662391       -4.37305789541042       -1.69504070942442
H           -2.08830230847534       -2.72256020020970       -2.12015710727887
H           -0.71369153189795       -3.03528143464296       -1.05718776240894
C            2.01244219760042        3.65836945790101       -1.15595908208058
C            0.80142385908029        2.26613638715505       -2.82080979412833
C            0.05948174687012        4.58185270829424       -2.44875482086963
H            2.39021287004242        2.80154548074393       -0.60590016821852
H            2.70705036825938        3.88620199874301       -1.96083568605140
H            1.97713189874181        4.51001897626942       -0.48149466729138
H            0.02851652537295        5.45240303083157       -1.80094950469478
H            0.68442318869230        4.82605276892745       -3.30392970191097
H           -0.94807796028011        4.38431585239477       -2.80801495492610
H           -1.59775504837727       -4.84064426035985        1.00638173282885
H           -1.04985822602728       -3.21304587749403        1.37355924536256
H           -2.59506309365680       -3.78653885938518        2.01615089256910
H            1.33111241470159        1.39704236348059       -2.45148310069792
H           -0.15590602126821        1.93841607846156       -3.21530609433355
H            1.38152120385986        2.68689435986038       -3.64018771232247
