69
 energy: -105.688146001550 gnorm: 0.000316602594 xtb: 6.5.1 (b24c23e)
Si          -0.43519182662135       -0.17947434461298        1.17602401936689
O            0.21940417080344        1.26630411548264        0.84359373155613
C            1.06909033833809        2.11367072805938        1.58084575980944
C            2.24847371725313        2.48904631599433        0.72082786623394
H            1.40673231015861        1.59273052055219        2.48379619327130
C            2.05453144793259        2.80797621016932       -0.61714704673543
C            3.53075369321216        2.52493600728104        1.25010218403292
C            3.12866336451870        3.15501946862708       -1.41588534367611
H            1.05758994789291        2.76182545413099       -1.02834172782000
C            4.60440964018265        2.87982754581054        0.45167638067554
H            3.68566495501803        2.26868881883239        2.28810712484562
C            4.40583621428946        3.19475949906978       -0.88205831205992
H            2.97016500007975        3.39677349945433       -2.45691827473658
H            5.59998441741582        2.90563253746029        0.87041392131631
H            5.24536183505313        3.46752001283411       -1.50486313103225
C            0.28972783824436        3.37792198872324        1.99487507177818
C           -0.82217789520320        3.03252661754168        2.85418607423479
H            0.97112277157044        4.05271486820471        2.51937784748131
H           -0.08220377268986        3.87686972754909        1.09591710878334
C           -1.73979701157286        2.70290832115665        3.54708524679760
H           -2.53994483955880        2.41430307144120        4.16023148558010
Cl           0.46143699804038       -0.50149907044382        3.11082291813000
Cl          -2.37236454879513       -0.32418264304228        1.91961159023173
O           -1.02374619076369       -0.08434855312685       -0.55632367698096
O            0.32444610016530       -1.64103392014692        0.81163717547148
C           -2.10366370483900       -2.11883114449851       -0.82240819617463
C           -0.88118742173555       -2.84567939514868       -0.84444612361037
C            1.53730955465887       -2.87817556177006       -0.75511955746730
C           -3.26071724824093       -0.04618621527254       -1.19805645893257
C           -4.45264027769367       -0.72875004811773       -1.27472249926907
C           -3.34422149749484       -2.79367659373534       -0.82946576745541
C           -4.50543523977626       -2.10493923770006       -1.01232139678944
C           -0.84985226808476       -4.11697192168421       -1.45860146531524
C            0.33481460656742       -4.72999459080397       -1.73519081274297
C            1.54073085659312       -4.05506220449263       -1.45150523825688
H           -3.35906130464265       -3.85189702804137       -0.63114277507536
H           -5.45817038261363       -2.60805257364158       -0.97493768003961
H           -1.77817108893438       -4.56606614273077       -1.76854729248701
H            0.36142204229991       -5.69500633838136       -2.21434618136321
H            2.46444827866143       -4.49239429885953       -1.78140509569413
C            2.81475681478979       -2.12328649053883       -0.42249780016680
N           -2.14254324611202       -0.74326234813566       -0.88742456561274
N            0.33170255501071       -2.35626940746506       -0.36994567157991
C           -3.15442898472863        1.43801074996298       -1.51539689095194
H           -5.36382646095568       -0.20798552600549       -1.50039477306170
C           -4.46974056488434        1.96973968624772       -2.09998692248787
C           -2.83690470127579        2.25799942839816       -0.25832663042779
C           -2.05878977193961        1.64590726325641       -2.57371420508988
H           -4.32555435270107        3.00508591740909       -2.39978774457847
H           -4.77224778648766        1.40594466630627       -2.97968872496766
H           -5.26749079305932        1.94861218643491       -1.36222941967558
H           -3.52892883867253        2.01206458675284        0.54267761231333
H           -1.82988825517897        2.06845028364316        0.08983426761001
H           -2.92954920095481        3.31771809852291       -0.48522847097811
C            2.66203843284669       -0.66434895893807       -0.87485146354609
C            3.13388297715985       -2.20530580234798        1.07741490025900
C            4.01463029176435       -2.71035358565199       -1.17937767033833
H            1.83580542470156       -0.16646345270741       -0.38432315674233
H            3.56737370300310       -0.10991294414897       -0.63982379900562
H            2.49987286568393       -0.61917917476057       -1.95060166244549
H            3.83745400761944       -2.73057377333439       -2.25232659257195
H            4.88216554305536       -2.08131677976159       -0.99496807126722
H            4.25402656648947       -3.71263092452647       -0.83287676964719
H           -2.00756146079790        2.69942221203677       -2.83765010705879
H           -1.08907456960092        1.33912306884247       -2.19588367704289
H           -2.28517359896932        1.07499189830013       -3.47297203401904
H            2.38124510449937       -1.71252892483463        1.68141904498995
H            3.19896391595158       -3.24579673403470        1.38929580082692
H            4.09123480406382       -1.72611572104224        1.26727455135356
