69
 energy: -105.682871800819 gnorm: 0.000771956401 xtb: 6.5.1 (b24c23e)
Si          -0.05621166986791       -0.84804625845027       -0.31418872257922
O            1.19580478225287       -0.17598403295188        0.49306049120234
C            2.04176285127247       -0.69348303274475        1.48919680963507
C            3.24181831288116       -1.41533946338835        0.92203793653735
H            1.47812416631954       -1.40500306260333        2.10598777546112
C            3.52915112456199       -1.42150510106582       -0.43347163620884
C            4.07901710935768       -2.10808070574226        1.79071996514987
C            4.64236251263820       -2.09041520207436       -0.91355443275806
H            2.86967518382818       -0.92394789474108       -1.12578927848065
C            5.19183881059624       -2.77269498402051        1.31243983784123
H            3.84631315790905       -2.13967605354975        2.84586560826591
C            5.48087115276431       -2.76071222330119       -0.04255149970009
H            4.84671436035315       -2.08920807238251       -1.97384810548783
H            5.83190882763545       -3.30901276853165        1.99776621578236
H            6.34934018878607       -3.28265284523911       -0.41637607088730
C            2.47297358843661        0.49338187523848        2.37584951913035
C            1.35651583792134        0.95582814199886        3.17023245102731
H            3.28480448292463        0.17853486862802        3.03470868164249
H            2.83039386966905        1.30325181729837        1.73484920574467
C            0.39810358129222        1.28565531346792        3.80584407487926
H           -0.42235480339917        1.58525436026040        4.38602411622170
Cl           0.20221635306284       -1.60685746964602       -2.21113601505191
Cl           0.04482408197474       -2.79643501000101        0.63295514095072
O           -1.59079828959407       -0.79806068507832        0.40805949870923
O           -0.34746207486194        0.73892778750491       -1.12855089773571
C           -2.43309741461050        1.41962992722306        0.52718263143618
C           -1.17077676405895        2.08373043662188        0.55845717680102
C            0.89317686472766        2.64478072394651       -0.52373296222213
C           -3.87478500392162       -0.46416821688736        0.05851739559829
C           -4.96853107604689        0.34208622996130        0.23956917983200
C           -3.57798594010457        2.19470764822314        0.80768186508053
C           -4.82910971103938        1.67933380808462        0.66087946263328
C           -0.94426067369929        3.09836976567505        1.50929897523298
C            0.20517521289657        3.82991561510157        1.47837793649563
C            1.10391960390855        3.62578182669201        0.42358310958898
H           -3.43907175142278        3.23181519743894        1.06458292409256
H           -5.70517872037853        2.28224254309241        0.83502057263000
H           -1.66581918639329        3.23494188891353        2.29694864072907
H            0.42049796211787        4.56342371705460        2.23792783218360
H            1.97812931039195        4.24894075434653        0.36058140359463
C            1.86431927308303        2.58125975902866       -1.69925541972963
N           -2.63230157022312        0.07615498973422        0.23453661756364
N           -0.18807393137110        1.84889556397908       -0.38290783349746
C           -4.02967375718162       -1.93935518475931       -0.28003057716895
H           -5.95829083664231       -0.04015651733121        0.07968481820803
C           -5.48254373939260       -2.27101881396546       -0.65132846621811
C           -3.14500615710246       -2.33063434356556       -1.47440200800052
C           -3.66498389652596       -2.77652226630877        0.95677260672858
H           -5.53884255382496       -3.32165105728362       -0.92508663464267
H           -6.15877041055682       -2.11870309620512        0.18638301763308
H           -5.81708562551496       -1.68264340586733       -1.50271629680463
H           -3.56801698513259       -3.19520489877137       -1.97856142226142
H           -3.07325728851323       -1.51951255702035       -2.19584591864496
H           -2.14801325751008       -2.60265655824677       -1.15375549487543
C            3.26087991836157        2.22948075784848       -1.16573705050432
C            1.51372907023331        1.60189225658909       -2.81990361661950
C            1.89068019936300        3.98278923047776       -2.34216945373358
H            3.23759177139990        1.26664670331563       -0.66373495378761
H            3.96267073566648        2.16551648803841       -1.99362536140000
H            3.62608489444351        2.97830910014933       -0.46703715835906
H            2.22616975233530        4.75352411685506       -1.65522264046474
H            2.57037576971613        3.97371532576202       -3.19052291822116
H            0.89980096484549        4.25139591243278       -2.70193343932428
H           -3.82505057541498       -3.82844772035418        0.73625335251231
H           -2.62377923186201       -2.64563170641126        1.23094259836695
H           -4.29198367865837       -2.49712778576373        1.80172786479595
H            1.60187944362942        0.57013448813442       -2.50457261074043
H            0.50329138049507        1.75964185967930       -3.18576213768637
H            2.20362411077841        1.75807919545562       -3.64721027611755
