69
 energy: -105.685908841712 gnorm: 0.000619223126 xtb: 6.5.1 (b24c23e)
Si           0.03399749246010       -1.33471477653078        0.01772178855202
O            1.42456436942983       -0.75462115902146        0.62495095476034
C            2.15647695500861       -0.59412414619816        1.81677440270789
C            1.54041664286676        0.49957286188681        2.65713567576562
H            3.14607617849117       -0.25640683322083        1.46965093177642
C            0.22974667946344        0.40145905064048        3.10776996798868
C            2.26949163227183        1.64635556976207        2.94486812318143
C           -0.34507776844845        1.44377925993289        3.81320578008761
H           -0.34612740445767       -0.48612882635599        2.89993298620026
C            1.69904995380489        2.68091361145496        3.66541523665265
H            3.29124946723020        1.72944931298583        2.60124627518126
C            0.38589047028967        2.58589143219432        4.09302766850761
H           -1.36815352459115        1.35998603959416        4.14905301826816
H            2.27873045573477        3.56559202874207        3.88627889774324
H           -0.06455192764634        3.39758547273745        4.64575565850430
C            2.35368751458419       -1.89829734790717        2.60649844206650
C            2.94497880208914       -2.90283145254577        1.74899151044990
H            3.00994084286600       -1.68898119179831        3.45552004087266
H            1.39411352742276       -2.26270095195660        2.97494028543387
C            3.41702273097569       -3.68444034998301        0.97590430023197
H            3.82018521633388       -4.40003285656498        0.32409247293793
Cl           0.09250862460347       -2.84166077666550       -1.39072680650987
Cl          -0.59948523077120       -2.68009203850867        1.57680465979704
O           -1.40281017389598       -0.53375141455381        0.41851241289004
O            0.25233210139238       -0.19670504063474       -1.40943266274992
C           -1.22471841683309        1.77645257104958       -0.11189795498623
C            0.18076448387754        1.85093176880560       -0.32641045714599
C            2.11567772105320        1.20095407778780       -1.59241989720424
C           -3.33567249266447        0.59810229985848       -0.23317550147748
C           -3.99832097824838        1.79421674600601       -0.18010958709202
C           -1.93983935959998        2.98286048787250        0.05185028428154
C           -3.30125599912297        2.99969899447214        0.03859856124831
C            0.92100978331465        2.91396093627074        0.23506131874639
C            2.22472913858730        3.10668579607065       -0.10896196672502
C            2.80268328527960        2.28020313187370       -1.08232393283462
H           -1.38736917091629        3.90493308086767        0.11468806929111
H           -3.84666904505915        3.92315170426867        0.14490661143722
H            0.45514308413852        3.52744982610717        0.98729394645549
H            2.80724298329743        3.89016847501065        0.34840497407566
H            3.80684143445044        2.48342313497854       -1.40331110429916
C            2.73148617653141        0.30450234656325       -2.65746045603789
N           -1.97253592963890        0.60363583919087       -0.10867454919981
N            0.85965872132355        0.97095421899880       -1.14360826846155
C           -4.07147285507146       -0.71884008893954       -0.42695780091484
H           -5.06557175704473        1.83197937246560       -0.29003553300114
C           -5.53900527582305       -0.48010840766587       -0.81152213668693
C           -3.42635299376000       -1.50317234998854       -1.57735677561703
C           -4.06623746063859       -1.53696835314799        0.87327321757257
H           -6.00191936776681       -1.44055923679136       -1.02467194467306
H           -6.09713305595289       -0.02053566707005        0.00057537150699
H           -5.62143407213381        0.13643666611528       -1.70387004981381
H           -3.99240162806294       -2.41317406891805       -1.75812598743633
H           -3.42945899818341       -0.90749396808436       -2.48862482212349
H           -2.40662028290871       -1.79168102571719       -1.35902460109571
C            1.72734732017779        0.05321687786060       -3.79202173005195
C            3.96480464832710        0.97145254795858       -3.28582199512713
C            3.18468432876166       -1.02468590283604       -2.03993798929285
H            1.39340342921729        0.99819382706635       -4.21808072539250
H            2.20822272888169       -0.52807140492107       -4.57455513794485
H            0.86425891370868       -0.50259541397779       -3.44306904813861
H            2.34081965867439       -1.61820424581121       -1.71449575237493
H            3.73648404325820       -1.59713015010772       -2.78127153448594
H            3.83117881234251       -0.84913911322239       -1.18291491316035
H           -4.67227756311859       -2.42928260927920        0.73903935920935
H           -3.06651935014379       -1.84639332026663        1.15411912940716
H           -4.48953512414586       -0.94987333925919        1.68616096266547
H            3.73066993279443        1.96451124652176       -3.66330188207967
H            4.79032900406633        1.03693219824017       -2.58150959434823
H            4.29954391727732        0.36409701625198       -4.12323119796708
