69
 energy: -105.688229038128 gnorm: 0.000790200551 xtb: 6.5.1 (b24c23e)
Si           0.34080314527510       -0.24746282308170        1.17765195026262
O           -0.34424777068941       -1.48356374411166        0.38241089483789
C           -1.25135655005219       -2.47871173182376        0.80385797731160
C           -2.48337762933281       -2.40800925313168       -0.06128740346114
H           -1.51945235008138       -2.30127072983995        1.85100398410295
C           -2.36204850739915       -2.40141180634557       -1.44524375408640
C           -3.74495208345409       -2.32612557233708        0.51096725590297
C           -3.48730062018201       -2.32032081409479       -2.24526446799339
H           -1.37909506369718       -2.43843294321780       -1.89002075378754
C           -4.87116993317111       -2.24899823659551       -0.29032913253968
H           -3.84081470922179       -2.31577678942116        1.58677928033454
C           -4.74481999118934       -2.24737847317119       -1.66925537664110
H           -3.38458108007952       -2.31221161984457       -3.32072800743014
H           -5.84973619044092       -2.18477093619290        0.16299044908929
H           -5.62405885966241       -2.18393959578658       -2.29392762521408
C           -0.57509205454519       -3.85769853123219        0.69006882139202
C            0.56352443184152       -3.93599439908074        1.58000360993831
H           -1.30568233903830       -4.62758656726273        0.95148983967064
H           -0.24662361229491       -4.01501590658006       -0.34036753697332
C            1.50635387661157       -3.94545744775147        2.31634841843057
H            2.32949702987286       -3.96360956910098        2.96570996016107
Cl          -0.64905691456083       -0.48381535588635        3.07966016875720
Cl           2.23551790672684       -0.46179090553227        2.00917439804125
O            1.03151505275821        0.18269742325823       -0.46832420206113
O           -0.35326623164464        1.28696701402177        1.24796448070678
C            2.20310296768280        2.13211955854113       -0.00567762391073
C            1.01369565273325        2.89361523531598        0.15763256804892
C           -1.40169797596224        3.00801824750128        0.06398092119733
C            3.29823948070525        0.23123432742985       -0.98585096100924
C            4.51922491453223        0.83030408969996       -0.77814205664426
C            3.46785035981001        2.69851648073234        0.26697707402715
C            4.61005920575423        2.04032384661228       -0.07706824331685
C            1.06032263510313        4.29954287052346        0.03288957526021
C           -0.08583455872070        5.02605988466649       -0.09231242841093
C           -1.32346678244332        4.35237425553940       -0.16946334119640
H            3.51316610905346        3.63280964180505        0.79995370498316
H            5.57758771613336        2.44847965505742        0.16701023368207
H            2.01892895517955        4.78638439650211       -0.02658473019618
H           -0.05365198769551        6.09882047023496       -0.19186117053263
H           -2.20529321809598        4.91942173064926       -0.40337230176533
C           -2.70289781025156        2.22833037926402       -0.03301417768791
N            2.19107466370326        0.85176714496987       -0.51487436990973
N           -0.24467118671976        2.33248168828807        0.34895036426055
C            3.15346768004519       -1.06004200529152       -1.77748992507798
H            5.42112217043474        0.35822573755437       -1.11878965044594
C            4.48017430986917       -1.44495961597941       -2.44618432885695
C            2.73024010510458       -2.22534201096167       -0.87382035868579
C            2.11529840707299       -0.85040825084350       -2.89243642450713
H            4.31342255171655       -2.31366730690164       -3.07853928146328
H            4.85853123191090       -0.64156381247034       -3.07443861900396
H            5.23111887383865       -1.71430720760902       -1.70820406277372
H            3.38295359533704       -2.29291255180183       -0.00756281285578
H            1.71262005597685       -2.10362597132336       -0.52594218296641
H            2.79442357922413       -3.15732537147391       -1.43090769073581
C           -2.47805604906906        1.03229789816923       -0.96875816596104
C           -3.19294781062470        1.76166768317173        1.34489423443248
C           -3.81506807982583        3.08840617296728       -0.64884632111085
H           -1.70239573548348        0.36904585851335       -0.60664716017316
H           -3.39526339388967        0.45495189725030       -1.05213258722632
H           -2.19669983775142        1.38028028531172       -1.96153670284166
H           -3.51891471766443        3.48936133380775       -1.61555638288788
H           -4.69283400577761        2.46445224575045       -0.79927723070619
H           -4.09863830805113        3.90542117926664        0.00990061028444
H            2.04291776164320       -1.75436605036790       -3.49193720551639
H            1.13637779363157       -0.63527116184725       -2.47746968928087
H            2.41420872390048       -0.02870023260551       -3.54141641028981
H           -2.50263765916296        1.06795339441371        1.80921440113414
H           -3.31845824123188        2.61618065489060        2.00649948064902
H           -4.15318809404400        1.26382361922652        1.23366420124786
