69
 energy: -105.686459230471 gnorm: 0.000335218888 xtb: 6.5.1 (b24c23e)
Si          -0.35914292703013       -0.09710459194391       -0.64202516180182
O           -1.36997711141249       -0.26364589313744        0.61876430557204
C           -2.48823010297949       -1.10276791210771        0.79561142566579
C           -3.63651503460339       -0.75795036698775       -0.11814189985286
H           -2.18194209857512       -2.14075706056142        0.61505481386625
C           -3.91043631589630        0.56247779270552       -0.44273504036984
C           -4.45651432501573       -1.76364005754272       -0.61152327090753
C           -4.97773990004050        0.87212338862737       -1.26657498835972
H           -3.27236734149356        1.34726785898298       -0.06646722264213
C           -5.52843616688114       -1.45265410884183       -1.42720062375323
H           -4.24134603327036       -2.79402709648329       -0.36842210799365
C           -5.79005524412064       -0.13398741308137       -1.75886181173193
H           -5.17247205183559        1.90258584653542       -1.52556148615960
H           -6.15556554729502       -2.24269164567204       -1.81351430273085
H           -6.62169998048403        0.10743304378934       -2.40455294966968
C           -2.94614490921496       -0.94394120181433        2.25923585330388
C           -1.90910600477236       -1.33176696222803        3.18940420977031
H           -3.83548147398456       -1.55935443489603        2.41726545602501
H           -3.20685698879304        0.10421471190077        2.42669299180547
C           -1.03489830624879       -1.65116024371295        3.94118443114966
H           -0.27697053309225       -1.92730760589479        4.61116709843279
Cl          -0.59657586394338        1.54676267771840       -1.89718415217129
Cl          -1.36182823203667       -1.45150490731598       -2.00125386733299
O            0.66490360453770        0.84139671915172        0.54135608384354
O            0.96428261096719       -1.08807752371112       -0.97634105264208
C            2.50215898379485        1.43115659864914       -0.74807386823632
C            3.01138181259699        0.10286260523882       -0.76668676983932
C            2.82692343702353       -2.23262733719954       -0.16005865357839
C            1.18693480677045        3.10497992066818        0.36520518251494
C            1.84692289910181        4.08674959453798       -0.33656566329106
C            3.12007341293766        2.44694662795852       -1.51050151833972
C            2.76779147671203        3.75176461979547       -1.33970505207880
C            4.39129478926335       -0.09324852510622       -0.99487889029518
C            4.97070013055444       -1.30686997623371       -0.77945652297662
C            4.18295572939887       -2.36512455134087       -0.28048409145796
H            3.83134112463348        2.16480583197828       -2.26816625427196
H            3.20201327892199        4.52645170076555       -1.95083721969139
H            4.99449493268170        0.75345830906591       -1.27562442098336
H            6.02656297633742       -1.45392969482898       -0.93798163523162
H            4.66833204290192       -3.28462196428463       -0.01206577497509
C            1.94286736028130       -3.36005203135696        0.34887311682494
N            1.46327882711485        1.81200912296579        0.07275187627659
N            2.25796185032260       -1.03472058754866       -0.49739361693993
C            0.22435108277657        3.42577726142256        1.49855442456209
H            1.63922008587646        5.12298132850070       -0.14833171092824
C            0.24715658445602        4.92346705554012        1.83068069773406
C           -1.21651057071907        3.04632126278877        1.13565010334025
C            0.66629416367557        2.65920654118324        2.75575505097195
H           -0.38221110927241        5.09827093969015        2.70013412455849
H            1.25176991434324        5.26321916505672        2.07225972034073
H           -0.14996820216191        5.51656158603316        1.01087225270673
H           -1.89631466743627        3.45806054835835        1.87864851423043
H           -1.47844277250578        3.44588015727329        0.15866325249297
H           -1.33229085843350        1.96953863017528        1.12201975707081
C            1.06054963018893       -2.83022458172208        1.48765375437024
C            1.09372390114117       -3.94718111315005       -0.78856350930978
C            2.78644057096951       -4.50598981418166        0.92631500456223
H            0.42544463697402       -2.01025356784293        1.17781975874339
H            0.41780962542600       -3.62657906202432        1.85417713298937
H            1.68306635078393       -2.48301617664594        2.31032543078447
H            3.45654321940119       -4.15391826484006        1.70732396239441
H            2.11755710179020       -5.24213922577894        1.36565135146135
H            3.36331951979027       -5.00615503492150        0.15247111607516
H            0.02589691802114        2.93449418124779        3.58988689184228
H            0.58541545318162        1.58724071587229        2.60684043752500
H            1.69484266357472        2.90845761346441        3.01205355399453
H            0.37730562501485       -3.23165338462135       -1.17482657313763
H            1.73608864714316       -4.26598409244397       -1.60696295574905
H            0.54864189217760       -4.81315094565718       -0.42083149838493
