69
 energy: -105.683474852805 gnorm: 0.000365335448 xtb: 6.5.1 (b24c23e)
Si           0.06523864104876       -0.25272254094804        1.10707142521217
O            1.09792926323799       -1.24894170730663        0.34495011282618
C            1.87257870612300       -1.18590061923803       -0.82468867476243
C            3.22129478252981       -1.81646707059910       -0.57380517190239
H            2.00909453903351       -0.14483399755316       -1.12727717977242
C            3.38627583458365       -2.77021261371503        0.41993721683095
C            4.30628616975620       -1.45577086899889       -1.36285056981126
C            4.62421718642563       -3.35524031579336        0.62194432343763
H            2.54365531022238       -3.03337529558727        1.04025248448142
C            5.54064387909721       -2.04656211317372       -1.16371185632956
H            4.18177322818057       -0.70751188388832       -2.13395960190220
C            5.70157285552691       -2.99839716529562       -0.17040382905300
H            4.74661038692129       -4.09255246162251        1.40140092512958
H            6.37972243641899       -1.76105248632887       -1.78163187563715
H            6.66689165937597       -3.45671903805156       -0.01306322199156
C            1.15542362056950       -1.93368985205498       -1.96992853650593
C            0.00740561056851       -1.19552328361751       -2.44697598442924
H            1.86164519655967       -2.07682728813791       -2.79225715041505
H            0.84176731979628       -2.91185285039982       -1.59793872640752
C           -0.93220581642799       -0.55948460551549       -2.82879345557967
H           -1.76008255078471       -0.01308426803810       -3.17091079801423
Cl           0.42075439787312        1.27370987888147        2.51166247880102
Cl          -0.09711783980219       -1.72060098494950        2.64288511863833
O            0.18343422966288        0.94615199165809       -0.25124712510071
O           -1.60191382317358       -0.46706132828589        0.90747833969122
C           -1.69210230499398        2.28613668344564       -0.01054898564798
C           -2.58568292495746        1.24148068799660       -0.40876917783695
C           -3.36768925132038       -1.04414322441261       -0.49790589110900
C            0.50200177660879        3.26219721181723       -0.03213018882446
C           -0.03901368104277        4.46783265051663        0.34286092842922
C           -2.23080029589570        3.53126830732789        0.36816741973856
C           -1.41339340309355        4.59555534553675        0.60619582765727
C           -3.69559580202803        1.62732030853223       -1.18776877369095
C           -4.56811334486547        0.70260447344016       -1.67552688118234
C           -4.38425801203116       -0.65141568533655       -1.33130114735917
H           -3.29381774661704        3.59853164108876        0.53332062505857
H           -1.80794696678711        5.53124163644406        0.96707866855630
H           -3.78971344611717        2.66831864525106       -1.45162273620138
H           -5.38403866884860        0.98867036692182       -2.31904420135475
H           -5.07802617807934       -1.37194762292160       -1.71951530697776
C           -3.26965614676849       -2.47989168779339       -0.00088042869814
N           -0.32175161369662        2.18573448997665       -0.10696681598502
N           -2.47922948044877       -0.09911678883192       -0.07130918694341
C            1.94993263676596        3.14006625574093       -0.48539441706905
H            0.58768496863855        5.33269408599932        0.44944028771396
C            2.63953054585794        4.51081821596942       -0.52612823398723
C            2.78749127443864        2.25139804694904        0.44180215613171
C            1.94027395425079        2.59504202025346       -1.92464111212811
H            3.64132062567100        4.38307924884196       -0.92968596599015
H            2.10799893501878        5.20878817472762       -1.16881983441216
H            2.73564479837843        4.93418198390069        0.47013170925702
H            3.82303264439134        2.25390549115361        0.10812141625044
H            2.74588975053386        2.63216504226992        1.45891523251872
H            2.44109650985344        1.22670392342275        0.45438065124550
C           -1.91815189672794       -3.10648809122531       -0.36414249034079
C           -3.49098251819620       -2.50596771402346        1.52062002553294
C           -4.35548630326851       -3.36282916700519       -0.63406468635000
H           -1.09873433567148       -2.62507551917252        0.15226298683469
H           -1.92187837727908       -4.15343324181769       -0.07131346351930
H           -1.75391774326993       -3.04102449122998       -1.43804593157327
H           -4.26124302797086       -3.39757704193132       -1.71710225970981
H           -4.23679725839178       -4.37653699956966       -0.25954119383582
H           -5.35390782866508       -3.02766289091612       -0.36346586907478
H            2.96169218120669        2.43476916362458       -2.26139447706303
H            1.40010742065407        1.65646188252321       -1.99943443171891
H            1.46612902089425        3.31326205851425       -2.59190616492635
H           -2.66671601752332       -2.04720482668597        2.05479721189247
H           -4.41438611971107       -1.98987103782560        1.77736112645426
H           -3.56836457221616       -3.53780824292900        1.85226831280520
