49
 energy: -88.790499064666 gnorm: 0.000846471636 xtb: 6.5.1 (b24c23e)
Si           0.03696935529211       -0.85325805519891       -0.27815682389700
O            1.03902240249372        0.29023891091128        0.28430153201293
C            2.14049939953615        0.51532431344055        1.13327544497351
C            3.42690920397497        0.00855932298666        0.52789786415966
H            2.19781301150251        1.61523564518296        1.18776414684178
C            3.66229332839017       -1.34748714571333        0.34207929164892
C            4.39189693178588        0.92340568653972        0.12335391407374
C            4.84216834613631       -1.77513229034095       -0.24203769589615
H            2.92023948031827       -2.07054748639197        0.63936365983169
C            5.57389343926103        0.49332776374468       -0.45262326656768
H            4.21466356431625        1.98152884341698        0.25956402921292
C            5.80111745710011       -0.85949200454699       -0.63855455191538
H            5.01015500262632       -2.83162515272106       -0.38663248930858
H            6.31642600416960        1.21605098455343       -0.75932438937391
H            6.72147743880128       -1.19692188359953       -1.09241435849120
C            1.89144612593054       -0.01333658379835        2.55570199452902
C            0.68267861502635        0.58607578035705        3.07778311483885
H            2.74651736895011        0.24948671571730        3.18321155735248
H            1.77615657562972       -1.09765573321417        2.53404759134399
C           -0.33262049604539        1.11986446528280        3.42010310693955
H           -1.22120210747798        1.55556932014827        3.76772378026335
Cl           0.41644353771854       -1.81922654556793       -2.04098404039224
Cl           0.51506180196711       -2.52666705069685        0.95991890098258
O           -1.46120866060405       -0.91550831764384        0.53768938625548
O           -0.70637825869302        0.46589871697331       -1.36076894477524
C           -3.01803238782164        0.84380205298077        0.06154433547819
C           -2.03954771066740        1.86618200132297       -0.04776962546247
C            0.05770000265055        2.59983280358624       -0.91530523889155
C           -3.58952350005828       -1.47972785664087       -0.15352505021882
C           -4.92566614895456       -1.18095139623439       -0.23634612302156
C           -4.39738009410422        1.13641298218083        0.08024345995062
C           -5.33947912423927        0.15442195329238       -0.05713413335269
C           -2.21616515033454        3.14722637259063        0.51824009804778
C           -1.26574932174985        4.12038544408681        0.38179769358155
C           -0.10187828690441        3.84851673878085       -0.35192800136194
H           -4.69536334659276        2.17108133847246        0.13271194165364
H           -6.38944727263641        0.39680916131290       -0.07000117131900
H           -3.10086235261818        3.32463686727617        1.10747900105234
H           -1.39779087040164        5.08645398290756        0.84193506297703
H            0.66899824242998        4.58910629054742       -0.48146181663165
C            1.19896655588116        2.26123663884968       -1.67410030942159
N           -2.67496742367019       -0.49707195438657        0.07599248559403
N           -0.89307118926315        1.65277253352842       -0.77555945446071
C           -3.08433350980337       -2.79166379945592       -0.26393408142103
H           -5.63560072894960       -1.96814481201769       -0.42488620280003
C           -2.59522750210998       -3.88461651249128       -0.35752302690205
H           -2.17131794896168       -4.84088838356996       -0.43923239435326
C            2.16817842423823        1.95583163564896       -2.31336133986070
H            3.01701977653317        1.67981969761090       -2.86457286349792
