49
 energy: -88.787614981317 gnorm: 0.000745080567 xtb: 6.5.1 (b24c23e)
Si           0.17277188770175       -0.78549970824305       -0.19829161319759
O           -1.24855788538494       -1.31899418514216        0.41638668948079
C           -2.52967404586068       -1.48081513324599       -0.12157606731765
C           -3.46622109936741       -0.37497844098047        0.29589899901678
H           -2.45954344242635       -1.50026861132053       -1.21800373881694
C           -3.16602089256864        0.45475801391364        1.36527859593350
C           -4.66557776368812       -0.19906335363688       -0.38548563511085
C           -4.04613213799730        1.45417149669003        1.74242387595005
H           -2.23171536201227        0.31508834429161        1.88542898821257
C           -5.54853298537958        0.79439147149071       -0.00233010148436
H           -4.90132412276200       -0.83993279562348       -1.22427971071759
C           -5.23903324304839        1.62560436109656        1.06222569961762
H           -3.80186002081797        2.09930434022436        2.57377342973905
H           -6.47870289391803        0.92418998356932       -0.53758232412482
H           -5.92743220880907        2.40360259906515        1.35864926637985
C           -3.07307438323840       -2.84109929769668        0.37001928358423
C           -2.27538783033430       -3.92486124764768       -0.16044390395969
H           -4.11318248101539       -2.95434654695253        0.05503367122096
H           -3.02554526495883       -2.85497796416362        1.46196767157318
C           -1.58136046384135       -4.78557463913600       -0.61692651800845
H           -0.98818020325103       -5.55723791949279       -1.00773004544314
Cl          -0.26378156289591       -0.99963282870978       -2.21541815733232
Cl           1.11951730296776       -1.81275462056805        1.36560572035732
O            0.00712818344045        0.82225062623170        0.35693092109544
O            1.83753566777785       -0.35186632724179       -0.89852727149674
C            1.98919331006477        2.17452090595046        0.20959276937331
C            2.92253097352017        1.14929045766163        0.52838136615451
C            3.75764414413292       -1.05768292401664        0.16368806212492
C           -0.11691494414801        2.86394936151907       -0.71761029153090
C            0.33283997202374        4.14933955499898       -0.88277643264185
C            2.40794187995577        3.51870724882887        0.13032363966243
C            1.60834527679297        4.49570321724648       -0.39589394520534
C            4.00956270607885        1.37461530070789        1.40016534992377
C            4.93777960100718        0.40082026299029        1.64847264488171
C            4.82383470290245       -0.84078475816135        1.00925929158162
H            3.41713950604728        3.75151650762907        0.42841874316277
H            1.95898554004672        5.51127001715059       -0.47773849736027
H            4.06442631838070        2.32127007337134        1.91198178805819
H            5.74741468164180        0.57923596836396        2.33775675547842
H            5.53609100463365       -1.63066292375272        1.17450309458299
C            3.58568860520829       -2.27270842925247       -0.53263675561760
N            0.66340493121272        1.92298761284898       -0.11517096614369
N            2.85119228106431       -0.08412202939287       -0.06858177109041
C           -1.40572740094781        2.46789913031167       -1.12896665101588
H           -0.29802810991204        4.87209707050188       -1.37158900734446
C           -2.50372201100264        2.13751748402022       -1.48579817351733
H           -3.46283335390873        1.84159771148494       -1.79041793561724
C            3.44268755377016       -3.28831139498103       -1.15620274132556
H            3.31225108312134       -4.18217004282803       -1.68987906171511
