49
 energy: -88.790639130081 gnorm: 0.000819958181 xtb: 6.5.1 (b24c23e)
Si          -0.31861154090691        0.74576996354276        0.73959417144441
O            0.64263120139472        1.40492559668088       -0.37830467787691
C            1.95537195965810        1.89664968755695       -0.32076592863433
C            2.92386987915435        0.81810226710572       -0.73891932704075
H            2.18166327644676        2.21841838282456        0.70380593013825
C            2.50753622961965       -0.20166865520868       -1.58338807951773
C            4.23545150713892        0.83128873326405       -0.28429352665805
C            3.38501989910454       -1.20396583636231       -1.95585969353911
H            1.48550471946691       -0.20520528436117       -1.93167012568794
C            5.11526253019548       -0.16627409106876       -0.66537544365940
H            4.56105342207714        1.62199997558671        0.37657503443089
C            4.69102464129669       -1.18822828200903       -1.49805976052261
H            3.04961154066667       -1.99828843011565       -2.60754294878877
H            6.13445910639535       -0.15076740263480       -0.30697262242297
H            5.37734968843594       -1.97013549698541       -1.78838627312098
C            2.04541302336277        3.10658290175049       -1.27047623932112
C            1.19722698019259        4.18026653853793       -0.79941783818964
H            3.08309400100278        3.44568995498775       -1.32278549523476
H            1.71995090596897        2.79141270661974       -2.26506781115899
C            0.47984563219462        5.03851842777810       -0.37497957055044
H           -0.13896263815771        5.80103381696163       -0.00679380560185
Cl           0.85186184060533        1.21222990403752        2.47734102868312
Cl          -2.00148999008683        1.72037487545869        1.44698075991620
O           -1.21151618918398        0.13476785967311       -0.74476663161801
O           -0.27137651801018       -0.86632842025377        1.31236571948294
C           -2.56615952972673       -1.70187736327589       -0.24544238201579
C           -1.41610596438663       -2.50376312130983       -0.01335181958622
C            0.91065093984526       -2.69781466567379        0.56003218372089
C           -3.50063626892622        0.39727670565831       -0.90279351263310
C           -4.78200659527930       -0.10640735705286       -0.82972414866668
C           -3.87515090508932       -2.22744486112765       -0.18910699719365
C           -4.96542164990326       -1.44577257771620       -0.45571121388909
C           -1.38433072443735       -3.86031230531381       -0.39959618489155
C           -0.22975159182593       -4.59199945740140       -0.36401591576399
C            0.95932358126378       -3.98528674030369        0.08837706374922
H           -3.99870383910674       -3.25141323996775        0.12317620157012
H           -5.96170098895351       -1.85029090431906       -0.37764630277353
H           -2.28860449742505       -4.29228733239804       -0.79652767783250
H           -0.21627952107606       -5.61645691336095       -0.69815025363158
H            1.89581054466222       -4.51637126098019        0.09443323260598
C            2.02720388097399       -2.05588625235854        1.13437292210949
N           -2.43731240759896       -0.38350275314742       -0.61390338278716
N           -0.25547981781450       -1.99620732677709        0.54624738723040
C           -3.23032689851258        1.71180624966181       -1.33991396200046
H           -5.61497062342093        0.53501976848673       -1.06054745191812
C           -2.97645122972973        2.81035767597065       -1.75236765271445
H           -2.75660575845779        3.78134528794766       -2.08312810410221
C            2.93894528553275       -1.48786060867216        1.67133794237726
H            3.73507247135688       -0.98461933994186        2.13273818408366
