49
 energy: -88.791555388557 gnorm: 0.000913883321 xtb: 6.5.1 (b24c23e)
Si          -0.05401115403776       -0.34456677357141        1.16831561564285
O            0.67252928382856       -1.53471036668633        0.34632637391911
C            1.34410179544170       -1.56262855082565       -0.88818211374102
C            2.76784777216747       -1.08510473863815       -0.75806089694035
H            0.81319605069572       -0.92773646408870       -1.60593735534302
C            3.44077079069580       -1.18046643599800        0.45125012575053
C            3.42995128518599       -0.57690849175240       -1.86860406363762
C            4.75780001755052       -0.76668066940597        0.55085111614721
H            2.92395652663224       -1.57263646815639        1.31349428399412
C            4.74945410898473       -0.17361152446209       -1.77164348248267
H            2.90712637550370       -0.49585168587452       -2.81129415450843
C            5.41629128162829       -0.26678062496730       -0.56019070063396
H            5.27131706269294       -0.83794034485519        1.49817015841877
H            5.25688887786906        0.21976093084959       -2.64092496750367
H            6.44612574242169        0.05209835889549       -0.48357743862280
C            1.32022126721532       -3.02275561027299       -1.38414020346721
C           -0.01675908960924       -3.40832941627962       -1.77753022181184
H            2.00156337617850       -3.12774586268471       -2.23235780283680
H            1.66086637794269       -3.66432322952663       -0.56831210880707
C           -1.13800762952522       -3.67535484114137       -2.09915545964461
H           -2.11341089865447       -3.94277644097803       -2.37559781013698
Cl           0.83283387943106        1.18808189038195        2.24813411896573
Cl          -0.28141458837297       -1.61905471496153        2.82555465322392
O            0.01155001348514        0.72592763926996       -0.39438435653219
O           -1.74778582977352       -0.13162318604849        1.14092546925871
C           -1.78229402770092        2.22399663942340       -0.49222587270109
C           -2.69647113886199        1.14582095874004       -0.63717651313173
C           -3.23233805413087       -1.17328952210690       -0.29916399825690
C            0.46876086923557        2.98887099962353       -0.26924615666188
C            0.06195736738551        4.30647164644241       -0.29127912044423
C           -2.19946960475679        3.57083178261279       -0.54242000993096
C           -1.30323049815095        4.59722656595009       -0.42479155918848
C           -3.81347940001914        1.23588039888499       -1.49203391678637
C           -4.58422523042659        0.14321812679159       -1.77988664485707
C           -4.26101221169377       -1.10223594642858       -1.20483261525140
H           -3.25538958466650        3.77076390001919       -0.62270070482395
H           -1.63749604581716        5.62208857267522       -0.43088868480728
H           -4.00590344306815        2.18040303272663       -1.97462350308766
H           -5.41443015584422        0.21987321165582       -2.46265522636847
H           -4.81766989231721       -1.99167795154655       -1.44650029223913
C           -2.88981231978776       -2.35685703214314        0.38499726032762
N           -0.43241181552136        1.98637445375623       -0.36025469861053
N           -2.51339564011896       -0.06147108061492        0.01369930923025
C            1.83436470673448        2.63714925974119       -0.21573881898170
H            0.80068822134071        5.08507280652309       -0.20920274093439
C            2.99893820211793        2.34570101165944       -0.21947441359214
H            4.01165514675716        2.07347287626878       -0.19360698627016
C           -2.56221720499047       -3.33175946932761        1.00559649901138
H           -2.26911994127546       -4.18180761955221        1.54584062967577
