49
 energy: -88.791463249376 gnorm: 0.000649798736 xtb: 6.5.1 (b24c23e)
Si          -0.09520879833181       -0.38408650552819       -1.09283217040405
O           -1.14054799744875       -1.17110085748310       -0.14446531547161
C           -1.84582809809513       -0.80228448936807        1.01525476182428
C           -3.29268936074660       -0.53212446861205        0.68691528356433
H           -1.40000904286240        0.09939143173954        1.44496532654490
C           -3.88593229472793       -1.09972186182398       -0.43149365658893
C           -4.04534216821906        0.29121307274375        1.51548800139503
C           -5.21505021891809       -0.84264046335696       -0.72019090621810
H           -3.29357683292606       -1.72806059422915       -1.07855109287247
C           -5.37528454196129        0.54204068493422        1.22880874057425
H           -3.58206376633278        0.74070087304873        2.38348064921167
C           -5.96255272401510       -0.02396550472276        0.10883590083154
H           -5.66741288421270       -1.28333657090428       -1.59610933488500
H           -5.95383934756351        1.18455591488417        1.87752296944425
H           -6.99964744034956        0.17658726099622       -0.11713153049873
C           -1.71645258175713       -1.95764383001277        2.02795607405263
C           -0.37143766604662       -2.01657346412872        2.55573159849960
H           -2.42747045297643       -1.80610240377227        2.84396400594190
H           -1.95264115741144       -2.89245807656402        1.51462288600819
C            0.75475963039524       -2.01573972072772        2.96063246222374
H            1.73021310402483       -2.03907650235994        3.34615930077191
Cl          -0.58782728463199        1.16646719430832       -2.37987120802517
Cl          -0.24541402507101       -1.89916664126433       -2.54190199084469
O            0.20184202906358        0.85361262870954        0.30490945000060
O            1.58866343919505       -0.64396731285153       -1.09269704288516
C            2.28215528842680        1.89973687078055        0.09886714548483
C            2.94371267956656        0.67388139145450        0.37602702644497
C            2.88959501224486       -1.72752839872744        0.47716543285903
C            0.23630352369959        3.11692669694930       -0.12280740729402
C            0.91461696247586        4.29980648127728       -0.32327003722444
C            2.98034940419406        3.11243639453575       -0.08940198906998
C            2.31730834002860        4.28704900110885       -0.31461818908473
C            4.13394742193830        0.63472828483602        1.13172129234420
C            4.65678938770723       -0.54511137632612        1.58473658837138
C            3.99249597014792       -1.75371935205532        1.29350021300895
H            4.05739467841310        3.08072711363888       -0.10229264374298
H            2.86365764521080        5.20026484806425       -0.48729343040260
H            4.58969842818733        1.57181181101772        1.40744083959088
H            5.55036459336525       -0.55555006796094        2.18733707747894
H            4.34196675486393       -2.69503335690107        1.68319876156595
C            2.20545937646552       -2.89184643058398        0.07197785773669
N            0.90849089408682        1.96137403036454        0.07287706361308
N            2.42837660872729       -0.54863949678469       -0.02064001651103
C           -1.17271473612962        3.05350694894879       -0.04806845506356
H            0.35802282007247        5.20730631525810       -0.48200352133312
C           -2.36483071075831        2.96869816903975        0.06651253209700
H           -3.40889704877231        2.89161448798871        0.13787907341718
C            1.59822592626411       -3.85245374727040       -0.31569779572607
H            1.06826626148876       -4.69078641231179       -0.65739958075167
