49
 energy: -88.704412665123 gnorm: 0.000660439016 xtb: 6.5.1 (b24c23e)
Si          -0.24645616347769       -0.84459312376086        0.60741310606714
O            1.49280346553582       -1.03340900292967        0.24102764324581
C            2.08949791912384       -0.86257292322824       -0.85379775875008
C            3.49820968724550       -0.68286901607552       -0.93620610430818
H            1.50941459572994       -0.84994074625940       -1.77655231122290
C            4.29101278664264       -0.68299582592183        0.22820520951934
C            4.12096904098393       -0.49356408183867       -2.18302268202644
C            5.65185999835393       -0.49478938629856        0.14062030699935
H            3.79763084893168       -0.82370695213656        1.17781196226893
C            5.48392725981188       -0.30546167193811       -2.25549187168371
H            3.51650392306594       -0.49742167339953       -3.07762871341387
C            6.25450190860595       -0.30424937081724       -1.09835329363190
H            6.25605823437311       -0.49457104836695        1.03628878740392
H            5.95843954907803       -0.15893644914606       -3.21473144461880
H            7.32221191243266       -0.15635613284885       -1.16221148000586
C            2.56198858976914        0.74906294005590        3.01630612089493
C            1.35643296802018        0.50851139393977        2.59983933976648
H            3.09753970986186        1.63872107721232        2.72372230539470
H            3.06631705090935        0.07600186033406        3.69109086511797
C            0.17775015894901        0.24549976964997        2.14742890250666
H           -0.68629750562900        0.58645046878652        2.70211684187144
Cl          -0.80143018799130       -1.89351173112729       -1.26736658406023
Cl          -0.27321775492759       -2.65317359489778        1.72543318226668
O           -2.00114461175416       -0.39233965417278        0.93665884124853
O           -0.23493173022644        0.68213131441675       -0.58376827161663
C           -3.00113361629507        0.95058283880314       -0.65361864890223
C           -2.11678166423546        2.03146624313023       -0.28964361948693
C            0.07598768869918        2.83339437284564        0.16504963380028
C           -3.65061903012729       -1.31955455488313       -0.39398580688019
C           -4.63674746206806       -1.17323027958761       -1.35126414035410
C           -4.02598744144307        1.12589019565098       -1.58879033888723
C           -4.83435159473006        0.07267163799611       -1.94858050350344
C           -2.61391135378669        3.31526776580621       -0.04633841193096
C           -1.78337077547788        4.33879343505428        0.34489090769226
C           -0.41162266511305        4.08848389632450        0.46330816905895
H           -4.13029533561906        2.09054598048574       -2.05944661059690
H           -5.60195360739914        0.20084647626273       -2.69461351594152
H           -3.67836789154330        3.46985533902952       -0.12575925870133
H           -2.17821131796277        5.31711988237903        0.56372270232514
H            0.27746329347260        4.86002722681520        0.76365861375723
C            1.45839574607814        2.55305730254220        0.15195733625448
N           -2.87971401342258       -0.26529315009830       -0.04606438269645
N           -0.75952101163758        1.83101351375398       -0.20928673881766
C           -3.42796405896044       -2.52830720511117        0.29265651953912
H           -5.23691444225252       -2.02750185539497       -1.61596674736478
C           -3.19502279776818       -3.53198887448175        0.90932329040208
H           -2.96054185924007       -4.40966966237724        1.43407386346239
C            2.63723357801477        2.33706842439920        0.07250100524558
H            3.66556997938770        2.13448261144775        0.02095378329562
