49
 energy: -88.794022264132 gnorm: 0.000761437879 xtb: 6.5.1 (b24c23e)
Si           0.48885453947752       -1.10923180115706        0.45324269898187
O           -1.07312443898202       -0.65687789032502        0.54524046554766
C           -2.25928723441858       -1.36213261374934        0.25785059641511
C           -3.05534130133662       -0.59879785572781       -0.76949993394993
H           -2.00123704894296       -2.35107618162665       -0.13621959612389
C           -3.26621965013703        0.76553021688090       -0.61818132916898
C           -3.58462807460426       -1.24756089105525       -1.87686435616097
C           -3.98977488831342        1.47245167226184       -1.56143463058880
H           -2.85274300707388        1.27216701442283        0.24137480781445
C           -4.31835183443965       -0.54240459183561       -2.81483058493571
H           -3.41273680039729       -2.30637797672678       -2.00436343935721
C           -4.52089059334250        0.81874076967668       -2.66052865111252
H           -4.14239580851096        2.53525608621138       -1.43673349805491
H           -4.72661300537434       -1.05586168724715       -3.67362881768899
H           -5.08849694254235        1.36930834692387       -3.39651391014490
C           -3.07355048742485       -1.54264299125161        1.55332303348206
C           -2.30213990980125       -2.29199737398488        2.52145710036154
H           -3.99612194359086       -2.07705704794424        1.31216390357200
H           -3.32457500995549       -0.56025673245287        1.96182362440915
C           -1.60532378048493       -2.90169370706268        3.27912503707582
H           -1.00103788723528       -3.43992081337876        3.94620585026036
Cl           1.54604437839130       -2.00237017726361        1.96305005025479
Cl           0.23349068244296       -2.91739739078137       -0.66642826234030
O            1.22146863741917       -0.47646594371300       -0.96361274907977
O            0.95988236132252        0.44139479406663        1.31165913556994
C            2.06330378062458        1.75185796478506       -0.83999807813477
C            0.92879419760685        2.26591085124324       -0.15936708544528
C           -0.65418276095000        2.06730957191065        1.61608362679605
C            3.47432999888556       -0.12327804048772       -1.35375698680986
C            4.49375083042568        0.70697209044828       -1.74806927640058
C            3.07516070228429        2.59720181384603       -1.34078014831339
C            4.26558791049902        2.09654253496383       -1.79129243088820
C            0.34849691449588        3.51028655238217       -0.49024987705664
C           -0.71974884181049        4.00433270083166        0.20485474075884
C           -1.23488758276513        3.27479092174982        1.28775039220166
H            2.91658340885163        3.66225318739411       -1.29178926483458
H            5.04209670279087        2.75647699515759       -2.14197928405073
H            0.74210823189961        4.04276548515079       -1.34038176045331
H           -1.17059681140372        4.94315848928650       -0.07374548529699
H           -2.06756889660217        3.63697941882101        1.86705475570056
C           -1.09279327138799        1.29631784000598        2.71377340964703
N            2.26906177656476        0.39240693988355       -0.99008171801007
N            0.39075932987950        1.58732629471547        0.91058730526249
C            3.58689384151591       -1.52838425028490       -1.33075114322693
H            5.44387344538916        0.28483528013729       -2.02776957024691
C            3.62109317774937       -2.72808445631974       -1.28306659112838
H            3.65010876382996       -3.77620625657044       -1.24231286667636
C           -1.44668389868618        0.63813446812837        3.65350636081363
H           -1.75918590294601        0.03940236959808        4.45649143113681
