49
 energy: -88.791776067202 gnorm: 0.000744971930 xtb: 6.5.1 (b24c23e)
Si           0.27571247020836       -0.52825465994751        0.63398080290339
O           -0.84575761088069       -1.03081833617100       -0.41361088181023
C           -1.93444617486330       -1.90359118766702       -0.25259099877748
C           -3.22135251058972       -1.18033181599004       -0.55631972846772
H           -1.95814022096379       -2.27366419181912        0.77967531113205
C           -3.24085383745727       -0.13796294255651       -1.47261966197658
C           -4.40100948312735       -1.55556831176351        0.07345160983527
C           -4.42219208970245        0.52647613261827       -1.75037365937435
H           -2.31800784213454        0.15251374727634       -1.95072508196105
C           -5.58364290328154       -0.89518591353853       -0.21051306880198
H           -4.38683684513127       -2.36030975538515        0.79442924122937
C           -5.59629366189775        0.14848722984450       -1.12149714120473
H           -4.42763021070882        1.34075649458608       -2.46037834285044
H           -6.49706480851877       -1.19111944612619        0.28502183476543
H           -6.51906087805087        0.66677393544419       -1.33792690409496
C           -1.74213871640021       -3.09498456892197       -1.21285985029369
C           -0.55979789752224       -3.84319964578421       -0.84437494275168
H           -2.62410617048371       -3.73884288067767       -1.16777539145622
H           -1.63076729620097       -2.70746902356728       -2.22875110267427
C            0.43079202668447       -4.41928779619281       -0.50075373938319
H            1.29527504432221       -4.92898847819693       -0.19553815937254
Cl          -0.70326872553917       -1.09204644234291        2.45813621167476
Cl           2.00099507318407       -1.58085546281241        1.10802004775605
O            1.05737077546426        0.16935311009172       -0.87925559580485
O            0.25427497967331        1.04694175083982        1.28530884145805
C            2.52612800004786        1.90220011677555       -0.31036050539543
C            1.43237412589993        2.72982972332453        0.05551876010009
C           -0.90274143103122        2.92307447637481        0.58729696014322
C            3.31262606816998       -0.15518685809433       -1.23480396925132
C            4.62020657646571        0.28001042669450       -1.19411545509048
C            3.86352567045616        2.35376786605142       -0.27073376909675
C            4.89479458089521        1.55773518408203       -0.68643829612863
C            1.45304697873034        4.12306192391717       -0.16626577325041
C            0.31927869405984        4.88055432069003       -0.06023531147193
C           -0.90247574394507        4.25652995385738        0.26422170711975
H            4.05815217950874        3.32910217306543        0.14385408754248
H            5.91385841159794        1.90416684103961       -0.62434479066586
H            2.37609389257377        4.57111957521465       -0.49628237864423
H            0.34385305971935        5.93904321074043       -0.26114113973109
H           -1.82791920528150        4.80669301702160        0.27749534722339
C           -2.06574180852073        2.22978010070905        0.98139463355143
N            2.30787005478279        0.63584392339991       -0.79950034614537
N            0.25561993456789        2.20884955287368        0.56635749008809
C            2.95071367766722       -1.40613757301754       -1.77933090053104
H            5.40363308557653       -0.36889739121980       -1.54584096660603
C            2.61788019256791       -2.44653393555914       -2.27729509252223
H            2.32230383226761       -3.36765310255987       -2.68319275062103
C           -3.03636670293388        1.59867750484032        1.30128952888800
H           -3.88391060990716        1.05027742854180        1.58744328079246
