49
 energy: -88.790693205281 gnorm: 0.000850911129 xtb: 6.5.1 (b24c23e)
Si           0.18084776049094       -0.01565676667371        0.56697599577018
O            1.00930860901434       -0.70007139957214       -0.64299505923067
C            2.26731861081610       -1.32801880322669       -0.59880064174163
C            3.36776446692709       -0.32932735399265       -0.34538446749299
H            2.26579786598819       -2.07380803975756        0.20571097039857
C            3.27356895316079        0.95493191127782       -0.86283124803283
C            4.48253506464246       -0.68574164849301        0.40023901751600
C            4.28074816689657        1.87375716825660       -0.63008511031664
H            2.39345455869609        1.23009740644011       -1.42509227586567
C            5.49275983107230        0.23216111819000        0.62439819664844
H            4.54919391862118       -1.67987170869745        0.81713704361114
C            5.39356650988192        1.51364551194347        0.11010267532236
H            4.20024730953368        2.87675148886931       -1.02295024591221
H            6.35488449465944       -0.05013976299104        1.21060648877728
H            6.17873958661542        2.23259311985693        0.29270613337772
C            2.48506655548538       -2.02738924835753       -1.95317931136565
C            1.55742083183716       -3.12304848246707       -2.12753270276726
H            3.51161016570342       -2.40075124602215       -1.99828359916399
H            2.33645563608551       -1.29304161939598       -2.74820005538506
C            0.77775863086220       -4.02503349812283       -2.22858317729948
H            0.09841759235463       -4.81542634726424       -2.34308267512198
Cl           0.55267649655275        1.85889209974429        1.39197074213222
Cl           1.13290458343367       -1.02969616364570        2.20754115447182
O           -0.77768358183033        0.74262992152070       -0.80570540797068
O           -1.26378552942808       -0.72203795118007        1.13410854695997
C           -2.97408446822942        1.21070372916752       -0.12906312328190
C           -3.26323242818532       -0.17669929677866       -0.04559592601799
C           -2.46515214084192       -2.43356991302909        0.14287669780359
C           -1.44227096704970        2.95302658899286       -0.68847750233130
C           -2.39308025768264        3.92061557294899       -0.44181689168084
C           -3.95554598004093        2.19696904448185        0.10905396262548
C           -3.67229949600055        3.52800433977949       -0.02161233881411
C           -4.52143341051088       -0.69511155727044       -0.41620692034881
C           -4.72715802180998       -2.04072399500348       -0.54945828960110
C           -3.65961128846947       -2.93075377541189       -0.31601184800333
H           -4.92580123493188        1.87350920214087        0.44852048344362
H           -4.42051920909311        4.27334893984256        0.19461759087627
H           -5.30423214535758        0.00288895667787       -0.66539627767712
H           -5.68443737196247       -2.42253339322379       -0.86483078038658
H           -3.76833238812063       -3.99001568149986       -0.47542881231299
C           -1.36678030320988       -3.25472491227425        0.46882459667351
N           -1.72765723636261        1.64297692209633       -0.52285627152086
N           -2.30834202287431       -1.09797337801984        0.34213194961879
C           -0.16697945487296        3.29124223048074       -1.18992951573285
H           -2.13657840037663        4.95712766402592       -0.57769817878300
C            0.88500402094117        3.60523298917630       -1.67603492936020
H            1.81823323050494        3.87140773542003       -2.07477260628025
C           -0.40509734988947       -3.91396425284642        0.75643653269294
H            0.42917123635374       -4.49915546611239        1.00575941107317
