49
 energy: -88.794034475803 gnorm: 0.000765532183 xtb: 6.5.1 (b24c23e)
Si           0.55821988295769       -1.16093301829958        0.33676268021269
O           -1.01506003086128       -0.77765981647597        0.50870812436923
C           -2.18487497739275       -1.47569342779613        0.14569122846660
C           -3.00499157617665       -0.61382708058437       -0.78001167322542
H           -1.90443283500275       -2.40294012429369       -0.36562077157705
C           -3.27420595893826        0.70760565985680       -0.44796885291049
C           -3.49064333000582       -1.12430852931402       -1.97577552150378
C           -4.01338346410525        1.50845999932579       -1.29948746400733
H           -2.89300575920226        1.10770781587531        0.47978427439104
C           -4.23937795689094       -0.32599096869603       -2.82290630325040
H           -3.27327653033030       -2.14788027623618       -2.24298401132361
C           -4.50088460081626        0.99177168601614       -2.48793423613653
H           -4.21152733271399        2.53728427905124       -1.03398049776290
H           -4.61483488777757       -0.73219751430412       -3.75065948908678
H           -5.08091933652329        1.61547433852414       -3.15240149758237
C           -2.98211879504123       -1.83171745171941        1.41459044594882
C           -2.18580733500200       -2.67770378120328        2.27733146593866
H           -3.24915608693844       -0.91322800797751        1.94364716516830
H           -3.89590962752449       -2.35236129993753        1.11646844029444
C           -1.47272689778121       -3.36433341499919        2.94930211236156
H           -0.85144569026747       -3.96497215953021        3.54338667212495
Cl           1.67011252487712       -2.18488782553729        1.71888761249481
Cl           0.33734317046962       -2.83389976223628       -0.98262308554213
O            1.23788768592448       -0.34281553455599       -1.01036568070140
O            0.99608153897107        0.29608699601301        1.35998591135825
C            2.00667639402375        1.88552353144602       -0.64433465827935
C            0.87108966768208        2.27631960306016        0.11220950132733
C           -0.66632825991200        1.81558275800405        1.87905761308935
C            3.46756317458827        0.13441656330796       -1.40001798152630
C            4.44958823437824        1.04068987702825       -1.71340805361728
C            2.97845854620055        2.81892144292238       -1.06130082812580
C            4.17441164329360        2.41688126555339       -1.58917105849752
C            0.24254339169658        3.52924013536629       -0.06048287286963
C           -0.82614152725592        3.90069221975457        0.70651149337264
C           -1.29364670770435        3.03169720224022        1.70484315703817
H            2.78561179760833        3.86470330458392       -0.88504487280902
H            4.92059349502530        3.14040910723078       -1.87416041104197
H            0.59964749794811        4.17065996876331       -0.84931898914731
H           -1.31374352375130        4.84907026286324        0.54799810286588
H           -2.12554003219864        3.29408977530502        2.33671192823912
C           -1.05594192734275        0.90460675206228        2.88409402177038
N            2.25433356710725        0.56090877385019       -0.95592517764515
N            0.37967614672390        1.45928658397069        1.10496892493733
C            3.62771256549242       -1.25919133098076       -1.54064755161166
H            5.40676876012566        0.68819674738092       -2.05795016596443
C            3.69745866156789       -2.45411472775635       -1.64006068005086
H            3.76205065693034       -3.49858005858554       -1.71839864069130
C           -1.36117427214386        0.11940093086836        3.73934242454330
H           -1.63731074398524       -0.58134146921285        4.46981072617169
