49
 energy: -88.792645480518 gnorm: 0.000323279851 xtb: 6.5.1 (b24c23e)
Si           0.54100450932773       -0.68428423769740        1.25889657024839
O           -0.60002335710290       -1.75849022878844        0.83849345144897
C           -1.10837759926434       -2.09774935444297       -0.43607096721952
C           -2.00478382594186       -0.98851328331132       -0.92345230321495
H           -0.27245673811464       -2.22914613676128       -1.13101735842866
C           -3.04543530422081       -0.54427319612946       -0.11777653335254
C           -1.77270130784219       -0.35797499294028       -2.13786222817881
C           -3.84312441286308        0.51136261244430       -0.52140008383011
H           -3.21223458864500       -1.01548838513922        0.83854212956263
C           -2.56457982337237        0.70458795139174       -2.53746125077409
H           -0.96081271575355       -0.69625165788556       -2.76542259839742
C           -3.60204936938589        1.14076752222156       -1.73086232785476
H           -4.64927777727643        0.84700012424994        0.11428851410152
H           -2.37018411062241        1.19548676250958       -3.48025634104553
H           -4.21921856041700        1.97012092512952       -2.04415287065242
C           -1.86895054215254       -3.42721019279032       -0.30069033395342
C           -0.94677163431640       -4.52629531544706       -0.11200282917589
H           -2.46244789770673       -3.59255468431623       -1.20439526382241
H           -2.53624828128378       -3.36574563582399        0.56122110131484
C           -0.15860993860294       -5.41464625413239        0.03191769934499
H            0.51826040369607       -6.20260269239160        0.17692202384268
Cl           0.11510770213647       -1.01088800538985        3.28566988199428
Cl           2.57185341633690       -1.06572946340917        1.42102172309246
O            0.74966962778683       -0.28448467104933       -0.56692675686434
O            0.29240639290388        0.99337372091415        1.50570177738488
C            1.54613377757561        1.87854538836999       -0.93673448796299
C            0.34463820046644        2.42718602895543       -0.41224541150250
C           -1.57108230929074        2.27065679233304        1.03013125826101
C            2.82979847388242       -0.04746123953900       -1.53350093761791
C            3.84228370356134        0.73565782587030       -2.04450827875292
C            2.56782101118591        2.68405110325832       -1.48450388583273
C            3.70385649589539        2.13160846944293       -2.00876006638018
C           -0.23973571823750        3.57495709674139       -0.98497551823016
C           -1.47131596048037        4.02540617194858       -0.59852679834102
C           -2.17095047290237        3.33848037620082        0.41300744103037
H            2.45386376572433        3.75427385640131       -1.42951649492888
H            4.49217746559216        2.75910127365245       -2.39223351111999
H            0.28624871432503        4.05649250936666       -1.79338653352047
H           -1.91765491541549        4.88381836060718       -1.07294970093308
H           -3.15572475764368        3.64448078864941        0.72182743604022
C           -2.15816025948620        1.58183427123283        2.11152873149241
N            1.72887575905192        0.51714422744447       -0.99147985546528
N           -0.33213751113725        1.85484358132824        0.65120095670349
C            2.84961123365905       -1.45730924300601       -1.61076581691506
H            4.71418537291138        0.26422549213758       -2.46418114658647
C            2.80701950591427       -2.65274525868392       -1.71324176778272
H            2.79004566957284       -3.69986682811485       -1.77660768604290
C           -2.59082540927072        0.97979375310816        3.05648062858479
H           -2.96730010276401        0.44800897127561        3.87907262024591
