49
 energy: -88.793775631884 gnorm: 0.000990989195 xtb: 6.5.1 (b24c23e)
Si           0.08598586253267       -1.31689739704753        0.31520452124874
O           -1.39301886750662       -0.65194270397516        0.17759139891067
C           -2.34086912919956       -0.72418160886180       -0.86802947430607
C           -2.01996880245376        0.37556494889807       -1.85024908967186
H           -2.25213584198356       -1.69669275585490       -1.36443661434841
C           -2.03827175329567        1.70337551006848       -1.44168558792499
C           -1.60552389359496        0.06955061433868       -3.13884634636504
C           -1.65246802946125        2.71012385414707       -2.30773420835386
H           -2.34591565289151        1.95007537339572       -0.43580407274263
C           -1.22611906979431        1.07806557823074       -4.00773322837511
H           -1.56402788193361       -0.96287522017380       -3.45101859057373
C           -1.24700013935309        2.39921190482058       -3.59454708966075
H           -1.66617317987833        3.73881403833365       -1.97582036280127
H           -0.90304380184531        0.83000723617650       -5.00794252886154
H           -0.94337992428860        3.18490456916814       -4.27113491674677
C           -3.74793222422694       -0.59446088970116       -0.26574140635527
C           -4.04765426632910       -1.74336090301188        0.56197379970148
H           -4.47152943619937       -0.52791209574487       -1.08266231381166
H           -3.80723058981987        0.31202324368160        0.34093985166629
C           -4.25376460666337       -2.71103770854783        1.23470439160321
H           -4.44141374331112       -3.56340209011809        1.81649237832973
Cl           0.54026789705687       -2.77830669791996        1.67346371254675
Cl          -0.01343215140178       -2.65555028334848       -1.35294508624640
O            1.27112651731894       -0.46422456153574       -0.59160511668147
O            0.42327080823851       -0.17975801431348        1.71339371990949
C            2.27396258688833        1.42587152976155        0.45949825702029
C            1.04430142706286        1.94558147235294        0.94243039760346
C           -1.04406206311772        1.58067165374769        2.03936451625951
C            3.56217829161420       -0.46929665362755       -0.26248142393765
C            4.73750547088611        0.21653876876808       -0.08240706671857
C            3.47687659337821        2.15632804249103        0.54977462896550
C            4.68650835825550        1.57627008919768        0.28272350805332
C            0.73517766793901        3.32174904883973        0.88400065373071
C           -0.44339798895353        3.80732247947686        1.37767533089013
C           -1.35813992361756        2.92234040777803        1.96959845680387
H            3.42759718068489        3.17185314520250        0.90795737647512
H            5.60047163573821        2.13773582425522        0.38683346193867
H            1.43587714427988        3.97755590088686        0.39397118972414
H           -0.67975702134718        4.85692262800581        1.30639318286478
H           -2.29671360944184        3.26655919738767        2.37059459656876
C           -1.91235664915894        0.64357883535107        2.63806535373488
N            2.36748325163372        0.15246354560001       -0.07117024439346
N            0.12665388009888        1.11891832872827        1.55177306662649
C            3.50803348324114       -1.81536968392547       -0.67796794064264
H            5.67560465789438       -0.28988659256062       -0.23252229973694
C            3.38710885862191       -2.95803397140921       -1.02706451092302
H            3.28575782938400       -3.95925382107162       -1.32464613724339
C           -2.65388248583742       -0.15457240462265        3.14245426816988
H           -3.30664567584725       -0.86275671171697        3.55753063807376
