49
 energy: -88.796141061531 gnorm: 0.000482103887 xtb: 6.5.1 (b24c23e)
Si           0.08253557917992       -0.80655319579222       -0.24264578940468
O            1.02435484047890        0.43940856021436        0.22223473161851
C            2.14215707573599        0.46674604704089        1.07395524357235
C            3.35004804778812       -0.19144164336500        0.45893541416628
H            1.88931284421934       -0.04813002476617        2.00902218785423
C            3.50568717905129       -0.24229291066048       -0.91783689230254
C            4.33208358879585       -0.73480470487109        1.27636337249481
C            4.62432921395380       -0.83815846696059       -1.47254800122868
H            2.73299991339311        0.16821161231760       -1.54991797707684
C            5.45427117021747       -1.32149173378168        0.72135380818008
H            4.20706006152481       -0.70964642094433        2.34921584352934
C            5.60260262122039       -1.37514283384766       -0.65448882922289
H            4.72876029331094       -0.88742605015358       -2.54651539548626
H            6.21100828177308       -1.74697608386339        1.36407609550106
H            6.47545419616415       -1.84166393805847       -1.08717558590601
C            2.44452997278360        1.94892538962383        1.37263545440079
C            1.31875900072554        2.57457367371727        2.03048567034312
H            3.32912360816705        2.00921813944844        2.01088295472534
H            2.64767358986535        2.46058708441937        0.42798992481000
C            0.35413906758089        3.04812875756047        2.55697834178576
H           -0.47214716373218        3.48087762572282        3.03638078006048
Cl           0.31429571830071       -1.87140932999393       -1.97787988264338
Cl           0.94733693381897       -2.30494594550316        1.01997827089502
O           -1.32627263670107       -0.94881990939807        0.71731588225437
O           -0.83262653634478        0.37863812914605       -1.31322085556146
C           -3.17699793350406        0.42789602709403        0.11155860143806
C           -2.38922909739466        1.59701194527418       -0.05991189401380
C           -0.44933066227996        2.63899471637346       -0.97551761555039
C           -3.31802221697028       -1.97072180759066        0.12503187743167
C           -4.68412387991124       -1.92547848234581        0.00088280360917
C           -4.58584385034055        0.46943898463692        0.08332005042307
C           -5.33325975248879       -0.67516952286870        0.03244930942355
C           -2.80208189303548        2.85955077571721        0.41689931312004
C           -2.03832602105161        3.97639059935339        0.22138202939372
C           -0.83431557517811        3.87086938672098       -0.49066148571016
H           -5.06325977811338        1.43434216352505        0.02739018763026
H           -6.40855489134977       -0.62805880110730       -0.02177202398206
H           -3.71647086878048        2.91141678301481        0.98531710233370
H           -2.34876620767467        4.93170249276239        0.61323317897477
H           -0.20737075792334        4.72786857958596       -0.66719553492561
C            0.71687061110543        2.49010616543490       -1.75655180193232
N           -2.60142852839796       -0.82158064572027        0.25574499442256
N           -1.20991451638021        1.54471114950949       -0.76732480428262
C           -2.58475426103700       -3.17425022889802        0.16012149955280
H           -5.23751490439855       -2.84257271314070       -0.10806565961454
C           -1.90637036286251       -4.16469642544248        0.19678932038340
H           -1.31044911163953       -5.02796467107881        0.22556715747672
C            1.68955915051214        2.39551577418109       -2.45442733567042
H            2.54725384783680        2.30265292776543       -3.05262303727302
