47
 energy: -89.384510308644 gnorm: 0.000484310541 xtb: 6.5.1 (b24c23e)
Si           0.27055057188078        1.78494454765374        0.64870443379029
O            1.08549747020247        0.66974819575890       -0.15782726132310
C            1.25769344679238        0.25346429666536       -1.50744109952826
C            1.95660112508847       -1.08136570435995       -1.47198652167194
H            0.26540936904983        0.14243648024393       -1.95974853609037
C            3.14981260075721       -1.21890261297647       -0.77361648937309
C            1.40967764596025       -2.18009931253330       -2.11933899131141
C            3.79780868242643       -2.44012186944641       -0.73633922001472
H            3.56293345237651       -0.37132806348309       -0.24624710721859
C            2.06354059785901       -3.39977828422001       -2.08429986525090
H            0.46417171419985       -2.08148666043613       -2.62952609366942
C            3.25893624596837       -3.53102726488964       -1.39795670390180
H            4.72536734052806       -2.53959776426462       -0.19194622373500
H            1.63479304539281       -4.25122456431521       -2.59140712613209
H            3.76800828479180       -4.48347109354505       -1.37274081407263
C            2.07617861592867        1.28396870635089       -2.29830662442710
C            1.35885070095863        2.53146052579643       -2.44929646619271
H            2.29617597291982        0.86404124763238       -3.28302478629832
H            3.01843106848728        1.46909703043748       -1.77579928177018
C            0.74185294945089        3.55278240278528       -2.53976608524069
H            0.21403538051005        4.45354818083899       -2.63967613405410
Cl           1.36320230036835        3.36730377946866        1.16243570758951
Cl          -1.44709587246404        2.33240523804955       -0.25007879352498
O           -1.61417199370073       -1.46568332185044       -1.23674668813347
O           -0.12421449853527        1.00931982397050        2.05707120061809
C           -1.96968720860515       -0.70643170680863        0.89986917979744
C           -0.67053022688240       -1.19639929525503        1.31626860698876
C            1.26087202200161       -0.79915875438740        2.68189794839652
C           -3.57012672361486       -0.40377934477907       -0.79536067648199
C           -4.41510473935974        0.27786816549048        0.06753073109661
C           -2.79923693280920       -0.01852321695313        1.78343917640349
C           -4.02445759842520        0.47394832468924        1.38145110224074
C           -0.12008616200801       -2.38928195837903        0.90748604712610
C            1.11195695795013       -2.82000125150134        1.39697469849219
C            1.79631459169944       -2.00877354475006        2.29323001486620
H           -2.46121007024650        0.11135844381063        2.79915244467073
H           -4.66043498327739        0.99973005353629        2.07353024201328
H           -0.66338731152498       -2.99592367993056        0.20204122517480
H            1.53063242924427       -3.75590493092015        1.07088996558841
H            2.75710907365880       -2.29774922914449        2.68996951027924
N           -2.36116687371001       -0.89044836464565       -0.40203877724441
N            0.00953267657080       -0.39279714042180        2.22942676184772
H           -5.35652503700090        0.64467015480841       -0.30851427419428
C           -3.92766632942250       -0.61105767609643       -2.14850708084096
C            1.95148673851638        0.06881462552218        3.53759098702070
N            2.55562840120230        0.76560138824820        4.22502312966941
N           -4.24924991115397       -0.76833600145855       -3.23625539198058
