47
 energy: -89.382684568627 gnorm: 0.000790013887 xtb: 6.5.1 (b24c23e)
Si           0.33700598656575       -0.70559597673671       -0.68119238060200
O            1.16335094026950        0.39620138584303        0.19055090040137
C            2.26903519961038        0.17944880760762        1.04866201520502
C            3.47362417025047       -0.31892044701773        0.29494241957267
H            1.97822010176022       -0.56329584634731        1.80091445442265
C            3.79566466062462        0.21628948844801       -0.94455243074338
C            4.26987309689343       -1.31920268022464        0.83601259784165
C            4.89611662445553       -0.25200613289994       -1.63979167041960
H            3.17581534615682        0.99084817210498       -1.37150974727288
C            5.37444032020472       -1.77977905492401        0.14307316743290
H            4.01290066108232       -1.74694513958576        1.79401213791166
C            5.68801704670263       -1.24918667076827       -1.09713253970812
H            5.13125278255084        0.16289533630620       -2.60852039911198
H            5.98539125705180       -2.56261514171359        0.56816449389520
H            6.54507115899148       -1.61707909171233       -1.64185515207408
C            2.58368306922582        1.51524544475611        1.74572662695876
C            1.44567715370565        1.97597598222908        2.50962056766006
H            2.85019206116188        2.25801125723397        0.98974185593450
H            3.43786766474576        1.36700303471931        2.41074208292448
C            0.47214044501478        2.32244749583782        3.11378060771669
H           -0.36051477533535        2.63344581858485        3.67074497605053
Cl           0.75246385242008       -1.14422860303356       -2.61856072424000
Cl           1.05736023764979       -2.46866978327638        0.21317867921764
O           -1.19269173080142       -1.10136347486130       -0.01240518316474
O           -0.57552143212462        0.82748860627014       -1.44038657040932
C           -3.00135653680737        0.45148904794031       -0.25282086450693
C           -2.21220996083838        1.60102858297012        0.02277175717565
C           -0.21937904133446        2.83081703101718       -0.36458062110939
C           -3.12980188116872       -1.79534572881737       -1.07671904238293
C           -4.48584842429613       -1.69613938144151       -1.25138412226305
C           -4.40251625696222        0.51811590031193       -0.34077103390052
C           -5.14594931027329       -0.52779339827699       -0.82186286577607
C           -2.65541171351301        2.65079711100020        0.85530801353943
C           -1.88409099710110        3.75814392386753        1.07815069320784
C           -0.63074062930513        3.85842973649466        0.45728358130324
H           -4.88265676933508        1.44883844790010       -0.08423887775577
H           -6.21649024303057       -0.45059401875708       -0.91075265138339
H           -3.60616745833457        2.53777123433222        1.35050277579189
H           -2.22465649695811        4.54505365659570        1.73124785197000
H            0.01094814326226        4.70931306555078        0.61018482114744
N           -2.41567202156149       -0.77694748626568       -0.51889494769963
N           -0.98995137308493        1.74826663949713       -0.58608859067934
H           -5.02533968667883       -2.51153406073581       -1.70386462074694
C           -2.43909763989249       -2.97877776151232       -1.43247784512908
C            1.01776856264150        2.90125492037711       -1.05031217770163
N            2.01507873214325        3.02569077381687       -1.59782876291696
N           -1.94241289640684       -3.96518302271078       -1.73403625558391
