47
 energy: -89.378865834821 gnorm: 0.000846744441 xtb: 6.5.1 (b24c23e)
Si           0.12266285148658       -0.62459781355493        0.58337493871890
O            1.62152860476048       -0.44505070894317        0.03113327931923
C            2.77909835255505       -1.25058478865194        0.07201883579200
C            3.94380051630547       -0.46015388916769       -0.47106923877697
H            2.59834871613905       -2.13663354171164       -0.55353191501053
C            4.07802143887146        0.88703720301046       -0.16360258607249
C            4.91579674073781       -1.08770862936414       -1.23908719723032
C            5.17117916458088        1.59772328722701       -0.62726739011088
H            3.31938575658232        1.37676268954447        0.42795300644349
C            6.01150589156035       -0.37600803251370       -1.69440801244811
H            4.81363792310235       -2.13680215326812       -1.47930297870792
C            6.14082218090330        0.96857129179944       -1.38950002826039
H            5.26673825618192        2.64607834385400       -0.38677798344555
H            6.76399182453325       -0.87170214455631       -2.29020792215425
H            6.99578041570337        1.52365004678487       -1.74700670772805
C            3.10195088626227       -1.71226281081160        1.50669658691424
C            2.19945106716143       -2.75600734200854        1.94106267473449
H            3.02357030775001       -0.84989665883927        2.17285088645964
H            4.12918441619564       -2.08539971435401        1.53002062210535
C            1.43643813298646       -3.62591610192417        2.24610560094798
H            0.76492193021927       -4.37761342614020        2.53676354499280
Cl           0.04357842501088       -0.34373688506713        2.55689380715599
Cl          -0.59765052110448       -2.35132306323043       -0.17316418363642
O           -0.56294276913577        0.56993186300278       -0.34508659432187
O           -2.46113899581361       -0.44021733715698        1.20695795987214
C           -2.64984281542102        1.68451670278410       -0.41905197903808
C           -3.33501995204419        0.44604876223530       -0.70852382705145
C           -3.75923509872308       -1.78702556380765       -0.08672568166792
C           -0.71092399061459        2.77695864731438        0.50130880129620
C           -1.34075331546228        3.99781939003068        0.39723313713223
C           -3.25534163721312        2.91600892924606       -0.55802000192460
C           -2.61359780227749        4.08754309361182       -0.16296570265718
C           -4.18162918449848        0.28929183498479       -1.80687079786546
C           -4.80949372743571       -0.91378482095117       -2.05243718769611
C           -4.58595065952691       -1.97437710259856       -1.18532519524646
H           -4.26829717754139        2.95242544687220       -0.92679197632736
H           -3.10578893987032        5.04023601806855       -0.25542255252012
H           -4.30727469862253        1.12399276870591       -2.47773702557727
H           -5.45231664639288       -1.03358241484587       -2.90889054848848
H           -5.04054353285187       -2.93954568737683       -1.33723147423656
N           -1.35157720746627        1.62827560509398        0.06475597241403
N           -3.16054605036113       -0.59778041616286        0.16249939797300
H           -0.82770523594536        4.87574644941498        0.75747525355914
C            0.58667980967007        2.67295197435290        1.01672917122886
C           -3.54468955481986       -2.82629219921947        0.85075512231424
N           -3.42632861370821       -3.68525152522771        1.59843275540234
N            1.66549151758628        2.65130442351189        1.41682533342232
