47
 energy: -89.382236729626 gnorm: 0.000926878555 xtb: 6.5.1 (b24c23e)
Si          -0.38865506237228       -0.37281634712961       -1.21777565220116
O           -1.07147085724973       -1.12829462881187        0.00161053454849
C           -1.87130493415415       -0.74631155754295        1.11424755183033
C           -3.30521642712136       -0.60813815695468        0.67982494683747
H           -1.49645174150761        0.20849068033849        1.49229747311161
C           -3.89808762550143       -1.60802144597778       -0.08075452754046
C           -4.03222971262395        0.52869649943704        1.00492344111656
C           -5.20813099678583       -1.47530263395194       -0.50391947319483
H           -3.32172379669722       -2.47891679989157       -0.35585695181785
C           -5.34504938243734        0.65564288905434        0.58568301817224
H           -3.56451145197356        1.31911726014448        1.57314821985090
C           -5.93480572293485       -0.34548096904379       -0.16710491500822
H           -5.66101464058803       -2.25347839029292       -1.10016017491908
H           -5.90404033419408        1.54384430579983        0.83951409052367
H           -6.95745352036896       -0.24202455078374       -0.49884137590589
C           -1.68571981495290       -1.83017273905975        2.18673079801103
C           -0.35001373171195       -1.76892319220255        2.73962803998917
H           -1.84389376010268       -2.81038869453188        1.73104050512485
H           -2.42197642953099       -1.67755790500849        2.97955560537818
C            0.76464669251152       -1.68179145709067        3.16565987443719
H            1.73232477634305       -1.62066834547584        3.56587671262400
Cl          -1.06472028021823        1.44459166694152       -1.75970819713202
Cl          -0.61833915733537       -1.58743439679746       -2.79937511987603
O            0.29578857647739        1.17390290664806        0.88079157372373
O            1.27128660396123       -0.31432295942401       -1.12103554337463
C            2.35614200595794        1.91504754215793        0.20354294026904
C            2.86574084633421        0.57947156296796        0.38192300415562
C            2.38154329332742       -1.77585085343780        0.38141108261629
C            0.49214728606254        3.35891364252626        0.29553811034359
C            1.25901508947039        4.44163655985458       -0.10781093874077
C            3.15358570523039        2.99611501066867       -0.18100688465709
C            2.61557585013456        4.25458414127382       -0.34254876320662
C            4.08910815016890        0.31219655636639        0.96815459503128
C            4.47139690234540       -0.98771358316499        1.27258201606874
C            3.57756699817791       -2.03021217809171        1.01226897790713
H            4.19716170850658        2.81341790987229       -0.38073680167193
H            3.23380785541212        5.08027721288102       -0.65415910296065
H            4.71878875051348        1.14246166833227        1.24742325893865
H            5.41792430526017       -1.18582884952860        1.74578159859987
H            3.80276035143799       -3.04341545647858        1.30608988840478
N            1.02509803526383        2.12517747258027        0.45900360100146
N            2.06174862471612       -0.48723013727900        0.00807358941883
H            0.78752889455393        5.40341107361715       -0.22428298106213
C           -0.87957258064308        3.49322355299338        0.61987206698594
C            1.48202233811106       -2.81599433632213        0.09659931170459
N            0.80305915086780       -3.71312279504001       -0.13611796172590
N           -1.97564383015048        3.62247724485519        0.92458393827003
