47
 energy: -89.387022007613 gnorm: 0.000672240721 xtb: 6.5.1 (b24c23e)
Si          -0.88981518005557       -1.31811331834751        0.98968736648728
O           -0.03992014828117       -0.77620838940677       -0.25534763911062
C            0.60887551756475       -1.43590616277547       -1.35020831354839
C            2.08289926663990       -1.51500514799127       -1.04715155928248
H            0.19787848878106       -2.45088782219064       -1.42286866638417
C            2.94458211113276       -0.45730111981489       -1.30734502384763
C            2.57782632857617       -2.65791997103686       -0.42958003437108
C            4.28357066874770       -0.54994543639433       -0.96742350331080
H            2.57847312850157        0.44371546783193       -1.77496006355006
C            3.91517875856574       -2.74830933380675       -0.08921627334287
H            1.90922034903331       -3.48050161982142       -0.21641022943287
C            4.77129626528517       -1.69395595844066       -0.36006129404281
H            4.94131864477314        0.28057459054275       -1.17526295343337
H            4.28790324666263       -3.64250667142566        0.38759420517485
H            5.81610971165830       -1.76393205974071       -0.09679887536397
C            0.24983936331706       -0.65307469933964       -2.61745346684177
C           -1.15535036159815       -0.83332428798779       -2.91329372638252
H            0.85748464110086       -1.01469783739551       -3.44948290180478
H            0.45213251964125        0.40999492550515       -2.45808285507908
C           -2.32560110849891       -1.01858220540155       -3.08077222766021
H           -3.34484243848288       -1.17480748503219       -3.27297865537013
Cl           0.22395101721249       -1.58410746318124        2.62694830148003
Cl          -1.96853578601742       -2.93440815165956        0.50475986015219
O            1.03423235776061        2.20241637807686       -1.30266584993493
O           -1.83703985909725       -0.04245193915081        1.43483083545684
C           -0.15945573560125        2.02680398853678        0.65775297520902
C           -1.38413212407696        1.76926173079255       -0.06491851216532
C           -3.53592331577604        0.68301879519005       -0.03891132607065
C            2.16067203097878        2.42861124900928        0.64886237823629
C            2.21308130717833        2.43626400588543        2.03508146947209
C           -0.13144499755605        2.05512527578684        2.05458066354306
C            1.04179287965116        2.25283745872878        2.75157401046160
C           -1.70451453786813        2.31382360879443       -1.29087237689671
C           -2.93543000413873        2.07412570340851       -1.89569484214866
C           -3.85638303712777        1.25730826868901       -1.24886011000474
H           -1.06083422031852        1.93055582000376        2.58587883449572
H            1.04499723156090        2.26873471213884        3.82841706371579
H           -0.98149821491428        2.94707173867042       -1.77840991462230
H           -3.16626888799194        2.51321732514000       -2.85062747070999
H           -4.82471705293508        1.05119978330293       -1.67773537785670
N            1.00638295082999        2.22480825589734       -0.04175433659899
N           -2.32059009926377        0.95942587829992        0.57610910605601
H            3.16262772822643        2.59327874680190        2.52054032318605
C            3.33388293531162        2.64436927893220       -0.11073357743076
C           -4.41392681231909       -0.18446564296939        0.62393323681773
N           -5.14693890874948       -0.90673989088566        1.13784986601557
N            4.30622638197658        2.83543662823082       -0.68556353936266
