47
 energy: -89.384215712471 gnorm: 0.000952120210 xtb: 6.5.1 (b24c23e)
Si          -0.00600203259783        1.75082390628943        0.60480889712122
O            0.84420293261669        0.71208755802479       -0.26865905992133
C            1.57630079029577        0.74546923088713       -1.49022727152943
C            2.30765441941334       -0.56935898109922       -1.60043451510662
H            2.29760214092670        1.57043874357907       -1.41987191698106
C            1.61145525014676       -1.74850538017922       -1.83761739538501
C            3.68555323219087       -0.61230025784672       -1.43286483742552
C            2.29394659177787       -2.94958392624513       -1.92264495908961
H            0.53765043598307       -1.73715123744394       -1.93879404528085
C            4.36376114289669       -1.81566890071887       -1.51626580974724
H            4.23021020663485        0.30083633469593       -1.23935035026988
C            3.66895143438463       -2.98673094755038       -1.76563296218424
H            1.74530102431676       -3.85964822577715       -2.11412213657325
H            5.43571857897257       -1.83756070536240       -1.38747664767294
H            4.19901525666327       -3.92538309148984       -1.83518084394345
C            0.63605304736126        0.99425089314068       -2.67750032251010
C            0.22331235353800        2.38048738662729       -2.71891886788164
H           -0.24005035863160        0.34788366130532       -2.58321535390555
H            1.16102124818598        0.73953182114943       -3.60131595998900
C           -0.07516341337167        3.53941373136071       -2.70513628331805
H           -0.36222127756812        4.54794221166307       -2.71483164086611
Cl           0.93604789909615        3.46051823491976        1.00911746412519
Cl          -1.85594215156806        2.09553277717080       -0.11203297551074
O           -1.57603622713197       -1.74153131044725       -1.12216502445649
O           -0.21388353567620        0.91860852559125        2.01908546184946
C           -1.87674661291006       -1.03335577448123        1.03825794999049
C           -0.49617987715178       -1.35113853197677        1.35383488666439
C            1.49797337012397       -0.64701980184272        2.48619398780336
C           -3.61397818261012       -0.93128208509506       -0.54094893506592
C           -4.47672098190170       -0.36409755270843        0.38507807063386
C           -2.72182483494986       -0.45780805842478        1.98351432564195
C           -4.02466009565352       -0.12387769926619        1.67139930287416
C            0.15850500096599       -2.48166429590610        0.92916349212931
C            1.48356017902909       -2.72839914422095        1.29270065605229
C            2.14810629170343       -1.79048072227325        2.07060701599695
H           -2.33231680426025       -0.28731332679452        2.97441708477801
H           -4.67275444913178        0.31502846961930        2.41103973665764
H           -0.37146178948444       -3.18441310863177        0.30761234982754
H            1.98537762306371       -3.61899078554051        0.95697771252813
H            3.18031581177807       -1.92703495753385        2.35334273814826
N           -2.33009810523626       -1.26332076106239       -0.23482987742007
N            0.15623014429810       -0.43749615765330        2.17830445806747
H           -5.48031949895784       -0.11816309681827        0.07774141442521
C           -4.03515084840602       -1.17836485842583       -1.86890618450996
C            2.15285769862464        0.34662901804180        3.22351175179873
N            2.72017457596189        1.15676131659875        3.81156106237432
N           -4.40965560375110       -1.37332513784818       -2.93340364294460
