47
 energy: -89.377768885116 gnorm: 0.000873407349 xtb: 6.5.1 (b24c23e)
Si           0.33329136583670       -0.75176394630757        0.64165024457455
O           -0.83737789525002       -1.11020039039650       -0.39723468736760
C           -2.02713334805839       -1.85486716070934       -0.25138121700459
C           -3.19185766312794       -0.97905335805925       -0.63579515071887
H           -2.12875127572375       -2.17788468808550        0.79145875341791
C           -3.04661787817004       -0.04594964549286       -1.65395812460046
C           -4.40851520845785       -1.08656209836319        0.02263715328218
C           -4.10227569632083        0.77710317649203       -2.00196660354769
H           -2.09347021241936        0.03849631173019       -2.15528316767873
C           -5.46617362160783       -0.26884399997660       -0.33278886780500
H           -4.52010214620394       -1.80300821049819        0.82277870170953
C           -5.31473887525568        0.66594486507075       -1.34271304976604
H           -3.97891302096204        1.50626145254750       -2.79057465538594
H           -6.40873868389378       -0.35387341115013        0.18729576412455
H           -6.13873595907299        1.31016713836071       -1.61319090605058
C           -1.94156922965077       -3.09314280957065       -1.16274846492894
C           -0.80029762747972       -3.90585669861191       -0.79906480634514
H           -1.83301494611117       -2.76142108365148       -2.19841965841004
H           -2.86486468999500       -3.66952816082374       -1.06565589404461
C            0.17137376485062       -4.52408423122121       -0.47585202213358
H            1.01846491119643       -5.08055419141245       -0.20709098519396
Cl          -0.49967979106474       -1.41176983437918        2.46323276355179
Cl           2.12151420036602       -1.76290262112447        0.93180940370777
O            1.09227056492684        0.03147146119999       -0.93253438776907
O            0.35193135029741        0.83654216024783        1.29814790026550
C            2.42032027681685        1.86723108312762       -0.39973046658949
C            1.25358783948357        2.59811338992017       -0.03917554915683
C           -1.04902121441844        2.56371553298083        0.62763437338973
C            3.36828841481284       -0.15240441854120       -1.22202708033214
C            4.64110136901231        0.37730582371676       -1.18462335871362
C            3.71229352958812        2.42984878582445       -0.38012748293711
C            4.80988767101065        1.69866460789292       -0.74670091228759
C            1.10746213377137        3.96243008514479       -0.33410640988727
C           -0.09767700896333        4.60314784075212       -0.19564180104777
C           -1.21693712254803        3.87000050301139        0.24546158916784
H            3.82043204583248        3.43967446531122       -0.01887190570346
H            5.79754430276546        2.12747850792831       -0.69893415560859
H            1.95551731123524        4.48540204105999       -0.74669447129830
H           -0.20442329073224        5.64249410553272       -0.45709622236148
H           -2.19584830016740        4.31702146431933        0.29753913000827
N            2.29611532766151        0.57345803723621       -0.84477568641354
N            0.17493624673394        1.96832649206544        0.56104453019730
H            5.47656925041911       -0.22819109987987       -1.49255718822336
C            3.13893118631890       -1.44767761621327       -1.75728916119186
C           -2.12809727335526        1.81416316861737        1.15223247551917
N           -3.03183317791289        1.26040856672724        1.58582291461423
N            3.02067209398717       -2.45683239235048       -2.28366719702651
