47
 energy: -89.381756359719 gnorm: 0.000593293611 xtb: 6.5.1 (b24c23e)
Si           0.25787115752066       -0.69453284921958        1.50732005296570
O           -0.97894290091670       -1.43897568776032        0.84871462971481
C           -1.46798234569180       -1.76506585277674       -0.45134967706102
C           -2.67976143799861       -0.90472509684691       -0.69910241627722
H           -0.69255957280389       -1.52677740475199       -1.18207612161145
C           -3.86233568724093       -1.10348462996279        0.00134137837447
C           -2.58362892504174        0.16615764415201       -1.57828507932070
C           -4.93580446256795       -0.25184491611111       -0.18730344469495
H           -3.93882116152544       -1.91212565102852        0.71064068050570
C           -3.65747046661656        1.01895137306088       -1.76509444219381
H           -1.65659366022329        0.32886414466677       -2.10937908178558
C           -4.83624807413286        0.80966167120987       -1.07013128952510
H           -5.84956505095635       -0.41073942370408        0.36471677942147
H           -3.57115145459958        1.85006945675159       -2.45041388708889
H           -5.67361396655603        1.47692773684466       -1.21172749959835
C           -1.74403199412953       -3.27296917183818       -0.48710054458905
C           -0.48473906791463       -3.98972398270659       -0.50189778871143
H           -2.31855530893799       -3.50838681426714       -1.38654229932628
H           -2.32090992811900       -3.56206648991470        0.39397361221114
C            0.59322957278220       -4.50807105912157       -0.51100703774038
H            1.53178078387791       -4.97502791515965       -0.53266475058516
Cl          -0.17122008937773       -0.77197770050621        3.46301914050175
Cl           2.08709145727216       -1.49837544801476        1.26960706795703
O            0.83850891616326       -0.16910329369425       -1.10537199696698
O            0.41886580271254        0.94963468779906        1.29189919462286
C            2.01443617745675        1.77545228824202       -0.85579537305653
C            0.78026655063958        2.43983943567941       -0.51163732734319
C           -1.37653031435145        2.30278759836463        0.54377809728013
C            3.09197884114533       -0.24161281237115       -1.42439680903758
C            4.32116821175907        0.39578200525340       -1.50653517100111
C            3.23531897850045        2.44409202691133       -0.95794114937690
C            4.39074981734019        1.76372070315587       -1.27771315504487
C            0.43650267147338        3.67856025365688       -1.01467061836662
C           -0.81314431004069        4.23682761578468       -0.76859518855917
C           -1.72982771318495        3.51537418505770       -0.00281590492927
H            3.25753142841000        3.50092839238424       -0.74576711405607
H            5.33423945505564        2.28062318829170       -1.33806447999783
H            1.14011925368186        4.18464191443692       -1.65701688812873
H           -1.07955681440883        5.19292565861904       -1.18510059577068
H           -2.72490077672097        3.89047815014648        0.17705951223852
N            1.95894512979420        0.43239142059216       -1.11880852836004
N           -0.11893022029125        1.77431599425365        0.31069231558074
H            5.19488306498766       -0.18555728678270       -1.75094420657859
C            2.96467553887044       -1.62266515253279       -1.71090153145332
C           -2.26873128984953        1.59673094101715        1.36354360807337
N           -3.02461419038050        1.07664786353546        2.05589523073337
N            2.89887237512665       -2.73052371080253       -1.99143590204577
