47
 energy: -89.386187738671 gnorm: 0.000551211713 xtb: 6.5.1 (b24c23e)
Si           0.66425924142632       -1.24168963255670        1.11027807606639
O            0.52441039495637       -0.76582309093657       -0.40790995488357
C            1.32829632104860       -0.34073705794568       -1.50288933514992
C            2.20062580202860        0.81901729283263       -1.09974984061954
H            0.59352417023680       -0.00585818864538       -2.24632534361304
C            3.25249812044227        0.65174779482514       -0.20714660403644
C            1.91553855323689        2.08886513494073       -1.58480550390520
C            4.00753814928467        1.74014768834386        0.19087552943470
H            3.48059500384442       -0.32670343809142        0.19133908937943
C            2.67169113326169        3.17703723315805       -1.18567078107580
H            1.08968869908311        2.22481096541672       -2.26753003297296
C            3.71923726772537        3.00364381268563       -0.29762163729657
H            4.82041405582535        1.59981032166429        0.88742803680918
H            2.43058251592811        4.15903227034808       -1.56354752181379
H            4.30880724732391        3.85158091830432        0.01732335698857
C            2.12380327209149       -1.52623192655036       -2.06341004161630
C            1.23486257626717       -2.61857218962219       -2.39983203882755
H            2.84679698269492       -1.87398172760618       -1.32176062553601
H            2.66204185189886       -1.19406372224117       -2.95423623617668
C            0.46177526557294       -3.50156559680928       -2.63188118772477
H           -0.18227685385437       -4.29561282926971       -2.86461466632169
Cl           1.10731857715334        0.25579634261236        2.37579916140906
Cl           1.86219463835478       -2.81970912835122        1.39182124997026
O           -1.32063932095570        1.47838544891166       -1.71235426634478
O           -0.89221228613234       -1.63840901819381        1.49573486581276
C           -1.99775196298444        0.60925263485342        0.30681187509757
C           -2.19867159788603       -0.69938245837491       -0.27881163957966
C           -2.11529667876464       -3.07611162744698        0.07968806970162
C           -1.27131249695232        2.83695234737104        0.10135459279757
C           -1.46718094944265        3.07220262950316        1.45461317175349
C           -2.22092594102008        0.83114205622661        1.66636696661355
C           -1.96284952409845        2.05376237043607        2.25104429314988
C           -2.65054883420077       -0.92837868472032       -1.55937148282615
C           -2.86048423754177       -2.22245139058788       -2.03324485046404
C           -2.59877999152626       -3.29697754693069       -1.19190597245534
H           -2.61162607895579        0.01733072845457        2.25589711974964
H           -2.13901556837006        2.20974164392071        3.30185686056101
H           -2.85018161342046       -0.08155316759082       -2.19516804492619
H           -3.21837098358647       -2.38288489312595       -3.03566647671940
H           -2.75958597725460       -4.31528253668751       -1.51093713123053
N           -1.53159557172746        1.63382622754136       -0.48112478208288
N           -1.93774417828292       -1.78299180269681        0.55818942271365
H           -1.23224662754225        4.04594777325843        1.85289857000388
C           -0.78572567567942        3.86723393200298       -0.73697536677152
C           -1.78663966942131       -4.13291702874428        0.93835518944714
N           -1.50654117755514       -5.02186211594158        1.61270815845365
N           -0.40298304242632        4.73670323204704       -1.37718129078549
