47
 energy: -89.376915240024 gnorm: 0.000996590515 xtb: 6.5.1 (b24c23e)
Si           0.57788616404896       -1.10639761881542        0.23308539111579
O           -0.99587554174337       -0.69850255008737        0.31403783398816
C           -2.12944789077355       -1.48724286851196        0.01227691358037
C           -3.17467947277912       -0.67785702919951       -0.71063102157945
H           -1.81666004849498       -2.31763063678100       -0.63186973325887
C           -3.23640326350885        0.70334459012561       -0.61383478649134
C           -4.12630180816931       -1.34080316413181       -1.47853837460771
C           -4.22684462573934        1.41340031198163       -1.27054026030302
H           -2.49771657333894        1.22471925750026       -0.02659836371303
C           -5.12017473537892       -0.63399450494848       -2.12880340311990
H           -4.07846620892809       -2.41634774251671       -1.56888419235853
C           -5.17382317396114        0.74678283471575       -2.02676762386210
H           -4.25895226553807        2.49072307937386       -1.18853112418214
H           -5.85294739186503       -1.16066295550814       -2.72212232124845
H           -5.94826983160185        1.29947766749997       -2.53770355882223
C           -2.71601615467259       -2.07409286985778        1.31258463156193
C           -1.79954391646270       -3.02860623670815        1.89715278890347
H           -3.66346494319648       -2.56580117628615        1.07796586437566
H           -2.90013751405553       -1.26426499558211        2.02345871699056
C           -1.00556806181936       -3.80632509989633        2.34006842307489
H           -0.31424028835192       -4.48540415783778        2.74058120875709
Cl           1.72689230995003       -2.03784211018682        1.63240976075083
Cl           0.45777029572125       -2.71021346844551       -1.13128063205837
O            1.38143723751473       -0.18593407254391       -0.98267568339375
O            0.90532195377797        0.42117290156151        1.37222552800628
C            2.27945185362159        1.94942203374812       -0.42391967056573
C            1.07148152822634        2.40784563819890        0.16709910016769
C           -0.75293195181972        2.00317062441436        1.63272395273727
C            3.68340017759871        0.11609077325157       -1.05871800394651
C            4.77021778878705        0.94296356949884       -1.18743988295235
C            3.36907273024214        2.80909536327071       -0.64800587348290
C            4.59634312699884        2.33144671484254       -1.02466941361017
C            0.56211683439457        3.70559417485060       -0.05264161277231
C           -0.59167864507794        4.13075347114270        0.54631212184996
C           -1.27439680548850        3.26222681905001        1.41176450136708
H            3.23561883149232        3.85955881354750       -0.44468637242842
H            5.43148055526695        2.99784959001976       -1.16039111397650
H            1.08595108184398        4.34435617053307       -0.74491409861897
H           -0.98320855852568        5.11612459185488        0.35396539171867
H           -2.18828936608910        3.55283899775952        1.90242267224788
N            2.45416393090617        0.61621774627892       -0.75696341374586
N            0.38678105743826        1.59373264084019        1.04153898334521
H            5.73401160861992        0.52103516065802       -1.41885667411043
C            3.81263459540174       -1.27483938644934       -1.29224452186388
C           -1.39467534207242        1.11324600351011        2.52975629383782
N           -1.96404232544384        0.45661467495028        3.27367919690306
N            3.99212004303358       -2.38368157067784       -1.51286054418591
