47
 energy: -89.378811220577 gnorm: 0.000851406495 xtb: 6.5.1 (b24c23e)
Si           0.40866668747380        0.02566650688032        0.52858747545079
O            1.02712964658857       -0.67949901838564       -0.78032185471372
C            2.13576492914129       -1.55179876715952       -0.86982500551302
C            3.40010720265615       -0.86230786948715       -0.42847563478687
H            1.94629567124633       -2.42545528620780       -0.23364309533662
C            3.61099131707846        0.47019653870304       -0.75690449795684
C            4.35591335089183       -1.54327872653530        0.31167944313316
C            4.75927217255950        1.11855242748282       -0.33981501238218
H            2.86185781215851        1.00594201801588       -1.32080528640592
C            5.50881796332545       -0.89631388864934        0.71939146798391
H            4.18704692719230       -2.57580969853461        0.57956226142939
C            5.71123024190018        0.43515755460505        0.39698792033079
H            4.90411017272143        2.15903460756977       -0.58852195522974
H            6.24583415115492       -1.43043143195545        1.30052968465235
H            6.60729491923645        0.94082328651615        0.72571209179131
C            2.24295505229213       -1.99294191595136       -2.33922176717710
C            1.06450283903686       -2.72482640895324       -2.74920533822662
H            3.12857986287202       -2.62250181567516       -2.45488125170679
H            2.35366287537516       -1.10183709088372       -2.96183093227447
C            0.07395913680095       -3.32081382523305       -3.05736307331522
H           -0.78010894352202       -3.85832162278196       -3.34242397726359
Cl           1.03863712721698        1.77399083855886        1.47229098844532
Cl           1.16733428521055       -1.22289692644311        2.05389312331111
O           -0.43689083220379        1.10520795587234       -0.79308332677201
O           -1.17127184493307       -0.44477898888067        0.99928811553445
C           -2.53153736215701        1.83490301839118       -0.07368613691855
C           -3.02295672361952        0.50347333712610       -0.16819067563469
C           -2.52859315681258       -1.84021552174858       -0.26423624895863
C           -0.71158625567348        3.34340126845612       -0.34437330518134
C           -1.48765069433464        4.42029776702931        0.02645816757362
C           -3.34379520515294        2.93080351189292        0.28151369136460
C           -2.83467416091095        4.19940784383890        0.35089164932098
C           -4.31594363176289        0.21103946199409       -0.63081695346452
C           -4.69346083131247       -1.07012002200278       -0.94244098917290
C           -3.75647167209042       -2.11429158934288       -0.80944522138870
H           -4.37019007657212        2.73623129741796        0.54717046554180
H           -3.45700644650925        5.02553709047550        0.65353733229066
H           -4.99026382018627        1.03380653604855       -0.80754032867449
H           -5.67812240756600       -1.27740825222470       -1.32636739793407
H           -3.99047331263628       -3.11941474170636       -1.11867268784992
N           -1.22133350140775        2.09525902711930       -0.39470152407696
N           -2.20860316635846       -0.57665037549118        0.12828479746711
H           -1.05175736827991        5.40438398893521        0.05736669686775
C            0.62515345406786        3.52086331507423       -0.78917051109286
C           -1.57187651079552       -2.86064187799594       -0.04969975274782
N           -0.83546563404374       -3.72230589892226        0.11282602075948
N            1.65789676063167        3.73496336317192       -1.23310665110267
