47
 energy: -89.380855086238 gnorm: 0.000697563932 xtb: 6.5.1 (b24c23e)
Si           0.54984171485257       -1.36954816738211        0.01054150176921
O           -1.00665898857884       -0.92681597757060        0.01304179110692
C           -2.11971064134961       -1.30533231659938       -0.78176768552221
C           -2.79689222690902        0.00300237671318       -1.12428667359550
H           -1.74783436322934       -1.78224965821335       -1.69863934808864
C           -4.02104165694503        0.39960249002057       -0.60549181579174
C           -2.08632219928725        0.89117272918661       -1.92759415035108
C           -4.52601664194995        1.65793641127594       -0.89249947372055
H           -4.59021923883758       -0.26458379579771        0.02503600251978
C           -2.58488712265016        2.14984347705756       -2.20340026032289
H           -1.13157659055014        0.58279470491270       -2.32966644561428
C           -3.80988691867583        2.53724967452773       -1.68460721128146
H           -5.48388905878134        1.95209742555702       -0.48887266328614
H           -2.02104727217005        2.82808742230914       -2.82723949577595
H           -4.20524546806640        3.51870606664070       -1.90151070996720
C           -2.98004012700860       -2.31382603990008       -0.01318139674129
C           -2.23933819874967       -3.54280515125472        0.18675342668884
H           -3.88662286759329       -2.51937240420342       -0.58804715519774
H           -3.24337429580269       -1.90253954509238        0.96479187071507
C           -1.58247061906201       -4.52865901006960        0.35022066089802
H           -1.01607792363582       -5.39894336640580        0.49535068694179
Cl           1.30500874849697       -2.56107465130827        1.43972350148001
Cl           0.62964208883925       -2.57015066846142       -1.68615570585676
O            1.58848239605754       -0.27209085989846       -0.77362321986651
O            0.61494012360228        0.07426190728429        1.51038881345362
C            2.08700726663658        1.88208600612734        0.13683819247225
C            0.73631123048322        2.15192702272820        0.49918871293540
C           -1.26103460783367        1.40288142825772        1.52410724007910
C            3.80026523437189        0.24940369930218       -0.26217194438734
C            4.77940857995829        1.20158250752396       -0.14565159768387
C            3.08247165309665        2.86623197475642        0.16493120708336
C            4.41151052965265        2.55059900574751        0.01885784509021
C            0.10357327106072        3.38093108985398        0.22863420688123
C           -1.19722570331911        3.60601163219387        0.59263611904941
C           -1.90318499526459        2.59640569027034        1.25435581960576
H            2.78676034552700        3.88175498962062        0.37515779094456
H            5.16981866575564        3.31342568072326        0.07005643173103
H            0.65869709830034        4.12773153701949       -0.31529155020456
H           -1.68111993626848        4.54098271026067        0.36329389202237
H           -2.93092734460445        2.72294274261129        1.54923231950226
N            2.47897168411641        0.59365828360033       -0.19767091783220
N            0.02527844677083        1.19375763671764        1.18045287831170
H            5.81476887101995        0.90580638713893       -0.18792646506591
C            4.12850050945148       -1.10554691549236       -0.49487603882157
C           -1.94861821436644        0.36609736452047        2.20100975661470
N           -2.56925304219521       -0.41504586213258        2.76168089358907
N            4.45447280565016       -2.18506968468428       -0.69773363651153
