47
 energy: -89.378867909095 gnorm: 0.000988668420 xtb: 6.5.1 (b24c23e)
Si          -0.23478978051761       -0.52893533203265       -0.36171966788657
O           -1.73309214882581       -0.34144307126002        0.18731121719835
C           -2.88927268231924       -1.14889803976018        0.16635655296584
C           -4.03474202556480       -0.37134868574779        0.76516489787159
H           -2.68809386360338       -2.04898332446876        0.76499174706647
C           -4.18948315196886        0.97737146208174        0.47372582949815
C           -4.96630695435320       -1.00940767035159        1.57318673383020
C           -5.26453873178178        1.67832366572060        0.99115010799747
H           -3.45965974659839        1.47540740894540       -0.14656009249004
C           -6.04386158498893       -0.30704355646870        2.08310638324442
H           -4.84612257113926       -2.05896726451153        1.80269861731863
C           -6.19481458084205        1.03837450824767        1.79256399039198
H           -5.37752290748838        2.72756115650545        0.76226319167882
H           -6.76472420146159       -0.81063825443896        2.71047917690538
H           -7.03617484578174        1.58587215720848        2.19162879590555
C           -3.25453617767280       -1.57707515840410       -1.26847322002696
C           -2.36425206370662       -2.60959507327671       -1.75211270656155
H           -3.19535596284941       -0.69931033717945       -1.91632125233809
H           -4.28193794569465       -1.95048929638592       -1.27067476138550
C           -1.60772908773331       -3.47124632829689       -2.09591321024549
H           -0.94319171449086       -4.21455443811646       -2.42169630282929
Cl          -0.14175003300225       -0.23106699277165       -2.33148292349204
Cl           0.46551429698982       -2.27120510694793        0.37738085534351
O            0.45401749220273        0.65512904303561        0.57833965820097
O            2.36234661815508       -0.36053407479413       -0.95969465587359
C            2.54328090518202        1.76026538407227        0.67060296667816
C            3.21433613778235        0.51585124015340        0.96995843936385
C            3.63270362290621       -1.71837309568072        0.35067153887582
C            0.61568827495144        2.86529713980242       -0.25944536475222
C            1.25593002898403        4.08102465945820       -0.15635409468652
C            3.15841848421482        2.98630687655808        0.80916721390832
C            2.52801370997810        4.16194582379243        0.40624668516900
C            4.03941055236067        0.35114706666076        2.08299822810415
C            4.65289448884489       -0.85750932124727        2.33792311393948
C            4.43795014462675       -1.91394879108658        1.46378225326631
H            4.16926031066681        3.01526638228899        1.18431265369287
H            3.02823530723355        5.11061997377713        0.49663664190325
H            4.15883821411278        1.18406459387388        2.75716903719825
H            5.27783920734466       -0.98448179609772        3.20645294361224
H            4.88302623231073       -2.88266276146693        1.62142059774023
N            1.24838544235129        1.71218021330779        0.17834930504750
N            3.04540107202175       -0.52482791093734        0.09427595083936
H            0.75045664232034        4.96260483628436       -0.51847756593414
C           -0.68383947562136        2.76943885028211       -0.77135141508200
C            3.42945882976982       -2.75328120139233       -0.59405035065214
N            3.31932858835666       -3.60719879792361       -1.34858272052636
N           -1.76518836561530        2.75045423889828       -1.16499201999565
