47
 energy: -89.376936321994 gnorm: 0.000587443135 xtb: 6.5.1 (b24c23e)
Si           0.50434255886537       -1.06143846404856        0.36312008831325
O           -1.05554194427702       -0.59867016135614        0.34575345425677
C           -2.21096785373137       -1.38450642711481        0.13617296022036
C           -3.23636594118962       -0.63285227237419       -0.67370668340382
H           -1.92342586104245       -2.29140819183745       -0.41067994881026
C           -3.16007777180134        0.73535921007761       -0.87998041865789
C           -4.30564757688451       -1.33493513050019       -1.22123870219493
C           -4.13620837814811        1.39644821892621       -1.60573164009008
H           -2.32282716149688        1.28323364637024       -0.47891991577817
C           -5.28282831067068       -0.67606873237817       -1.94275255721426
H           -4.36311301680943       -2.40535878097689       -1.08636091777196
C           -5.20384897357360        0.69404022090798       -2.13395293145878
H           -4.06052987488736        2.46397510962593       -1.75765437468482
H           -6.10765790974726       -1.23304633973294       -2.36211481659663
H           -5.96779105802306        1.20863145293544       -2.69764645279014
C           -2.80474111422972       -1.80348846593698        1.49748314950239
C           -1.92684106653020       -2.73546469316704        2.17056987568973
H           -3.77880298021640       -2.26878389046326        1.33030572781951
H           -2.93704424649556       -0.91426102542912        2.11969294627802
C           -1.16734254304614       -3.50199832894134        2.68695255832053
H           -0.50654590482326       -4.16939892972242        3.15349875362090
Cl           1.58896413917410       -1.82152191355324        1.90776030233391
Cl           0.35973543873430       -2.82265466123865       -0.78396791018674
O            1.37418059249059       -0.32881600092394       -0.93082273023199
O            0.84593329310093        0.60802611448620        1.30362447999555
C            2.33148838959210        1.83161814971936       -0.62803930720131
C            1.11916126546263        2.40229908850922       -0.15496480139527
C           -0.77167589416071        2.25290653708581        1.27340490254535
C            3.68949160643345       -0.11537563289496       -0.94478114930359
C            4.80934947516480        0.65216863235415       -1.14058444049664
C            3.45849786066347        2.61781847542299       -0.92221049847017
C            4.68073322881197        2.05442322872791       -1.17855087338021
C            0.66055635870828        3.66949808041759       -0.57321966514321
C           -0.50192257015600        4.20350965730619       -0.08878296284873
C           -1.24475022418562        3.48164122124584        0.85760243557873
H            3.35590760982598        3.68991490043649       -0.87041294035270
H            5.54430557253948        2.66896882275553       -1.36961433850816
H            1.23101187117765        4.19174772402227       -1.32387429985771
H           -0.85479575603269        5.16202663863809       -0.43230599179462
H           -2.16836642533970        3.85961673046713        1.26264541996863
N            2.46874646524425        0.46011078698179       -0.76771293192950
N            0.37717942169890        1.73544104487367        0.79465055102281
H            5.76520921836811        0.17260880307420       -1.27044689139507
C            3.77871365027754       -1.52800094401842       -0.97640892686092
C           -1.47637556623163        1.51471693539523        2.25623766779216
N           -2.09403475313688        0.98377305673679        3.05990724516451
N            3.92631566053706       -2.66171350089650       -1.03430449961663
