47
 energy: -89.294591363290 gnorm: 0.000426138439 xtb: 6.5.1 (b24c23e)
Si           0.33100342548687       -1.29616841895917        0.61560202460206
O            2.06909000603829       -1.36791488673864        0.34117352826207
C            2.76605131378414       -0.85458240851006       -0.61239216329674
C            4.08935941601045       -0.40520236255121       -0.43404989880002
H            2.31093579556898       -0.77376800548784       -1.59797958525752
C            4.72254007812841       -0.47743592831427        0.82555824372623
C            4.80559845744218        0.14095895489952       -1.52043507998644
C            6.01080354023474       -0.02280973662950        0.98164211753897
H            4.17059176334444       -0.89702690627011        1.65229048349593
C            6.09291886101644        0.59244281474126       -1.34672224935524
H            4.32591165851513        0.19994351568132       -2.48603421067139
C            6.70290637542105        0.51336561658228       -0.09903920778370
H            6.48986739550255       -0.08212465744710        1.94770216445553
H            6.63497783844713        1.01069213888038       -2.18205500161479
H            7.71423659055274        0.86805319106048        0.02930347114019
C            1.44695689416990        2.18611009168180       -0.73623523593069
C            0.94844385731670        1.40924035733894        0.17225257468070
H            0.82304855302632        2.64751031402213       -1.48596442250695
H            2.49647115103557        2.42936534539730       -0.76085520979495
C            0.42253753274783        0.56634078867364        1.00230164106586
H            0.04657636775281        0.88756560949588        1.96142955522817
Cl          -0.12758207968882       -1.81230520791319       -1.34363386568349
Cl           0.47598188770770       -2.59483022165093        2.14585300251528
O           -1.61282842654146       -1.24718217771052        1.03085370641472
O           -1.99754675448413        2.42921803097497       -1.41922257693903
C           -2.92897744183141        0.11326638997274       -0.33967958708949
C           -2.54249606672273        1.26005958983404        0.47284513291308
C           -1.71134194531236        3.45243092604083        0.58615827101941
C           -2.96049491279233       -2.24738943499102       -0.56194807656358
C           -3.76177124304935       -2.15611533751775       -1.68429746413043
C           -3.70159304519629        0.22404315715515       -1.47984127410943
C           -4.11948504533973       -0.90695044327192       -2.17068685206389
C           -2.64033110606957        1.23276329340629        1.85885225577397
C           -2.28013097181838        2.32961756341554        2.62103842844660
C           -1.80116321418026        3.45378821173602        1.97140567769747
H           -3.97775627171743        1.20700744856003       -1.82491006751103
H           -4.72038901117972       -0.81365413264423       -3.05930836266369
H           -3.00213225048555        0.33404012414890        2.33171300491513
H           -2.36607808314589        2.30546184063491        3.69449855457051
H           -1.49137182470836        4.33487180083455        2.51042836732718
N           -2.52819003925928       -1.12443434992659        0.08529270622804
N           -2.08831047894052        2.38307595493069       -0.16950504903302
H           -4.08025722693745       -3.06525523844578       -2.16946428677352
C           -2.55859691798178       -3.49840025078201       -0.05062120367403
C           -1.20877847985082        4.57948992252745       -0.10496888423737
N           -0.79421027702882        5.51076430741909       -0.62699034667628
N           -2.26570464497562       -4.53566619439471        0.34116425008585
