65
 energy: -110.141609333006 gnorm: 0.000244586832 xtb: 6.5.1 (b24c23e)
Si          -0.37054045460757       -0.63097145057357       -0.16450776936679
O            1.04462328957345       -0.31592155549750        0.57291602489396
C            1.76554099914132       -0.97792092173263        1.58551854823736
C            3.05986512433905       -1.51087982017358        1.01062262670756
H            1.16793702047477       -1.83060674139959        1.93851942737482
C            3.02359655682277       -2.13114000007341       -0.23333845619704
C            4.27445218874641       -1.43023373909859        1.67890486299051
C            4.17333940781896       -2.64469339012025       -0.80206758539951
H            2.08531721555189       -2.21183783526867       -0.75802453954048
C            5.42546921673830       -1.95048841740263        1.11090110433625
H            4.34009942889527       -0.96920542155068        2.65236154206178
C            5.38125197323259       -2.55530583428784       -0.13176270809682
H            4.12196874730240       -3.12179167905478       -1.76939292325685
H            6.36178784350545       -1.88166166744069        1.64632542377819
H            6.28124398989482       -2.95890910384413       -0.57229853756809
C            1.95456779452736        0.01002150957961        2.75092848140121
C            0.70116220724940        0.65744354404925        3.07647042873683
H            2.68083697424660        0.77543303070918        2.46559377407300
H            2.31905203583210       -0.52939926126568        3.62788740249665
C           -0.33737772806491        1.20944649589700        3.29575349619262
H           -1.25093975712664        1.67260616324740        3.52077034362372
Cl          -0.50340806141809       -1.38785384682184       -2.07164543241307
Cl          -0.77626627515949       -2.51685850737088        0.79242654034998
O           -1.77502505365967       -0.05392777248486        0.62311686307883
O           -0.22905159112748        0.97314263254832       -0.99999803517734
C           -2.33485571012205        2.21753631261207        0.16891242565342
C           -1.01075738209917        2.70108621871176        0.34278282904082
C            1.32850757229625        2.48471680813870       -0.13293018101427
C           -3.80668360775936        0.40425312791997       -0.39446342203869
C           -4.81634739389665        1.28248825827806       -0.68670747526340
C           -3.41876093829888        3.10466939693420       -0.00999093113786
C           -4.63884571036706        2.65833627931303       -0.42861285840228
C           -0.74240429533728        3.89145763271379        1.04806623303546
C            0.53577260479478        4.35434016509840        1.17490037331740
C            1.58429607880824        3.64028365775792        0.57734247530862
H           -3.23494095585653        4.15963977213943        0.11263206313265
H           -5.45102074134404        3.34650226646833       -0.59697108477891
H           -1.56417295955971        4.40067285065706        1.52413655019960
H            0.74508633286123        5.25359508093450        1.73158111874356
H            2.59534704729674        4.00383995023664        0.64383946609776
N           -2.63050906470861        0.86657043087071        0.09336296432746
N            0.05416326481833        2.05573520195818       -0.25037425175412
H           -5.74451540661140        0.90577115458437       -1.08130310126401
C           -3.95866498776759       -1.04978608158800       -0.57848256141883
C           -3.93431572251046       -1.91960863262189        0.50553065466608
C           -4.12491287314606       -1.55197832010278       -1.86525553283684
C           -4.06628878396644       -3.28028873240090        0.30014195416336
H           -3.80181272925095       -1.53138288712506        1.50357291538174
C           -4.24415756283166       -2.91451135709725       -2.06354595675518
H           -4.12849610317636       -0.87398044857428       -2.70591566574109
C           -4.21425122126672       -3.77928006474531       -0.98231470978638
H           -4.03273881692690       -3.95136187847482        1.14428018462665
H           -4.35004770663338       -3.30095844875174       -3.06586554691832
H           -4.29831202317946       -4.84391977086607       -1.14039942761618
C            2.42662425487321        1.75308180141157       -0.77855860790663
C            2.31126603990978        1.20140327651577       -2.05263746919410
C            3.64529955019339        1.64009192721832       -0.10804609121104
C            3.37870593974755        0.53211256120886       -2.62194820450319
H            1.38908205634214        1.29271835921994       -2.60233334400173
C            4.70916969455111        0.97481807601308       -0.68305780469571
H            3.75418596493940        2.06142738471697        0.88053247910362
C            4.57729042592970        0.41187385363364       -1.94115358142375
H            3.26800281228129        0.09994722642322       -3.60479993781094
H            5.64104653146383        0.88684045512078       -0.14499389815577
H            5.40666543276259       -0.11649027501724       -2.38620794452255
