65
 energy: -110.140190679959 gnorm: 0.000751937064 xtb: 6.5.1 (b24c23e)
Si          -0.18681233086221       -0.33613263562152       -0.18256533731806
O            1.28048158544156       -0.04514459410826        0.45682088585101
C            2.12081432868345       -0.75503735964319        1.33894484100109
C            2.45280342544076       -2.12920561698309        0.80469440264663
H            3.05166015851966       -0.16329914008689        1.33889652362431
C            2.73614102035474       -2.23773237656008       -0.55212633427465
C            2.51030670585372       -3.26715663419193        1.59571829679975
C            3.04573068854871       -3.46117594517936       -1.11363213157028
H            2.69193180680393       -1.35302529714369       -1.16975143159085
C            2.82928827473928       -4.49126804901019        1.03333244457600
H            2.29070042309732       -3.21779422938800        2.65015596842103
C            3.09358188243307       -4.59448271349786       -0.32021297132557
H            3.24585448348502       -3.52822269082928       -2.17271801038735
H            2.86075658487867       -5.37169031232733        1.65857521743929
H            3.33093030346467       -5.55377536983623       -0.75624424006758
C            1.53251306832274       -0.72526888314107        2.75762435389042
C            1.20156936667164        0.63790285802783        3.11208516311239
H            2.26301705195882       -1.11855249185485        3.46787592552259
H            0.62690657357847       -1.33486392558336        2.77954286308941
C            0.93959362048093        1.78241215941818        3.34416318886200
H            0.69908244177191        2.77523477934277        3.58152704796989
Cl          -0.46331066274566       -1.00986799042458       -2.10471203064906
Cl          -0.55526824441569       -2.26583831000834        0.71103776419918
O           -1.51063027858240        0.24332154043207        0.74311917708285
O           -0.09416300856184        1.30377051343497       -0.96945380352882
C           -2.16112495580968        2.49468303885137        0.32371066475100
C           -0.84067942767397        3.00332285422486        0.43362220588757
C            1.48135147972488        2.80047650396820       -0.11105149753146
C           -3.62040324452625        0.64381546384686       -0.13103464220955
C           -4.66507393669012        1.49504412290478       -0.37700119221028
C           -3.27139807028666        3.35660517464310        0.18923026305334
C           -4.50212954021556        2.87890339803779       -0.15632904447776
C           -0.55759659122440        4.20279245919344        1.11856372506535
C            0.72185569649464        4.67229848254853        1.20701584883764
C            1.75920148355463        3.95198565618012        0.59413374049519
H           -3.10402968578377        4.41688712533433        0.28672867446647
H           -5.33617341812234        3.54777876104523       -0.29299700701411
H           -1.36926460834726        4.70999653382411        1.61426974660887
H            0.94265934802899        5.57813032919302        1.74922448857124
H            2.77507824333765        4.30494200355830        0.64448761522234
N           -2.42719074787607        1.13705660302170        0.27483484025378
N            0.20698145967709        2.36848156627843       -0.20081267846884
H           -5.60653806571670        1.09066097127811       -0.70744000964985
C           -3.75488901891055       -0.81751485944051       -0.27023378236012
C           -3.92825724439297       -1.36590416136301       -1.53640376670615
C           -3.70846542613333       -1.64698853150009        0.84373052055215
C           -4.03492447137756       -2.73604653787738       -1.68431278919977
H           -3.94569838017538       -0.71853990259229       -2.40044409772370
C           -3.83018793450640       -3.01523522147053        0.68883601031893
H           -3.56607289429087       -1.21969390764280        1.82459945062312
C           -3.98663243832345       -3.56100905868761       -0.57327230932367
H           -4.14431674293137       -3.15939399233376       -2.67148655691024
H           -3.78123221864185       -3.65626092703411        1.55526465879173
H           -4.06032614094130       -4.63159670792259       -0.69241049741998
C            2.55683246328340        2.06391330786730       -0.78746612250662
C            2.42945835548232        1.60355210000908       -2.09543658301687
C            3.75311405864617        1.84614050809478       -0.10434515785711
C            3.46993703608258        0.91680535950257       -2.69412998843640
H            1.51723316763511        1.77578113132593       -2.64337604142079
C            4.78713216546904        1.15526773591977       -0.70724183803157
H            3.85531049388027        2.19607420571457        0.91277893290946
C            4.64704345297675        0.68490603026924       -2.00260241517049
H            3.35491565934552        0.55459417331448       -3.70469096096657
H            5.70263373467356        0.97639698181701       -0.16250792341302
H            5.45183263523919        0.13622694085848       -2.46851825775843
