65
 energy: -110.136846360655 gnorm: 0.000643606120 xtb: 6.5.1 (b24c23e)
Si          -0.28937067693920       -0.77846103097830       -0.22913869701049
O            1.25840353617688       -0.93073456850362        0.25451733046514
C            1.89613804807344       -0.95098690697493        1.52207277627120
C            1.33740497048079        0.17933392684380        2.35390337131465
H            2.94800690683169       -0.72879293127270        1.28378065830027
C            0.37617613812029        0.00087752590966        3.33851667716267
C            1.72723575762459        1.47247331926045        2.02090599966824
C           -0.19570211499812        1.09925530192771        3.95829554189387
H            0.04870182173077       -0.98856310855556        3.61026061191914
C            1.15118822466775        2.56831586205931        2.63511507689219
H            2.48613313370819        1.61750976696211        1.26366722601288
C            0.17966566682479        2.38290209988293        3.60382558835014
H           -0.95047694847455        0.94750541570547        4.71596049781366
H            1.45930932121612        3.56581545943839        2.35434224288459
H           -0.28063317009704        3.23678342707624        4.08002794630517
C            1.84042077315392       -2.33496832732691        2.17816425475708
C            2.60079045932428       -3.28967787352455        1.40108492622018
H            0.80452922497636       -2.67247351116844        2.23581857934561
H            2.26086493792414       -2.26169208040766        3.18488877332854
C            3.23561955501645       -4.05530146276169        0.73613799502358
H            3.77763599756748       -4.74899596556022        0.16706862719796
Cl          -1.05826784112176       -1.98453056182486       -1.70467952258206
Cl          -1.28988411671329       -1.86997193610414        1.33101892471280
O           -1.04302400011658        0.62424024978351        0.42245078844556
O            0.24494202592670        0.24521892589577       -1.64125471267873
C           -0.76082462589074        2.64536906703599       -0.81488672594130
C            0.62936818526415        2.46270800303317       -1.03046918838640
C            2.44543037937206        1.00694892154268       -1.60694998871271
C           -2.92382946875221        1.70206287721403       -0.36510332167677
C           -3.54772078189389        2.83205358724687       -0.81706930871230
C           -1.40856976820907        3.84903169403711       -1.17424953580303
C           -2.76872598718640        3.95287281121691       -1.17834667654279
C            1.54557015432735        3.53066786029561       -0.92554070711718
C            2.88033997627897        3.33261545486389       -1.13539840367003
C            3.33937244799872        2.04825953146428       -1.46814213406302
H           -0.79884393888063        4.66710468453404       -1.52139469090485
H           -3.25147168757306        4.86641185353313       -1.48517106913194
H            1.17246862443169        4.49511920212351       -0.62350019739825
H            3.58185054423294        4.14518686374408       -1.03360197334845
H            4.38649140115985        1.86791477235105       -1.64258812154124
N           -1.57316282030406        1.64876383670323       -0.30232493454304
N            1.12834734160691        1.23602144197425       -1.41931743579947
H           -4.62260989099375        2.85799544906976       -0.87108148004515
C           -3.65624014164484        0.50385027765996        0.09295137837492
C           -3.84278475773664        0.26561262568489        1.44869439694448
C           -4.12385715428871       -0.40862775583258       -0.84480653476962
C           -4.49912544555439       -0.87905109713032        1.86089336633216
H           -3.45633708323523        0.96795653255438        2.17239941490441
C           -4.77158710867443       -1.55566203493790       -0.42378020544227
H           -3.95531781770576       -0.23085247792679       -1.89657113079693
C           -4.96049399153740       -1.79074190591573        0.92695028836637
H           -4.63162324036089       -1.06859207625374        2.91497534175266
H           -5.11350228801665       -2.27207475769234       -1.15482028597137
H           -5.45487527483920       -2.69305552077259        1.25332330088634
C            2.90996447085821       -0.33878493836949       -1.96741238762590
C            2.27075262147000       -1.10830059743348       -2.93577267586367
C            4.03975391480320       -0.85154764944725       -1.33121292833267
C            2.73802285325766       -2.37380569296144       -3.23654784395018
H            1.40818429945902       -0.72149793162577       -3.45362757821689
C            4.49960956946281       -2.11765783104183       -1.63367240515728
H            4.54358848154514       -0.26473337034666       -0.57681031124866
C            3.84663795123154       -2.88420372915787       -2.58433274388393
H            2.22562408603117       -2.96478953989265       -3.98025846844910
H            5.36639225515237       -2.50660454544994       -1.12052470007125
H            4.20164408443568       -3.87696391145847       -2.81794487645967
