65
 energy: -110.139527442894 gnorm: 0.000213906863 xtb: 6.5.1 (b24c23e)
Si          -0.38165043916308       -0.26513739171229        0.86407588757652
O            0.38292831300467        0.99561837433274        0.19567195781815
C            1.07966930404482        2.07475354679897        0.75677341986943
C            2.31677859198232        2.36042507063962       -0.05536906992722
H            1.35540499439827        1.83623229523686        1.79178228175731
C            2.34579230938314        2.07684077337657       -1.41341871030290
C            3.42065983531387        2.95744974005994        0.53856099824897
C            3.46320125331073        2.38597531102822       -2.16851181680685
H            1.48680163372201        1.60379476178194       -1.86451661493015
C            4.53412245535930        3.27421692544377       -0.21854163413872
H            3.40448897863581        3.17054733468496        1.59761042423453
C            4.55753013402097        2.99051325627007       -1.57420123813140
H            3.47891344683893        2.16020570893902       -3.22543632043403
H            5.38838073881747        3.74068911831856        0.25039989658635
H            5.42815169003378        3.23748762378089       -2.16467860902403
C            0.16876596150434        3.32179623861430        0.74658727297785
C           -0.99648023721461        3.12025987737020        1.57914712007351
H           -0.14946527996104        3.50559927330421       -0.28326862422543
H            0.74102056051915        4.18187685569906        1.10352771095235
C           -1.95838906412161        2.91420260970396        2.25968951596267
H           -2.79856115483719        2.72808615585516        2.85848766689571
Cl           0.64767422892809       -0.24845041713781        2.76026292160432
Cl          -2.22971606975788       -0.37757453770517        1.81168183838100
O           -1.16262403705698       -0.36918720745370       -0.77503107271041
O            0.25673511702525       -1.83209737665836        0.63330395629494
C           -1.75426999653797       -2.56335843114936       -1.28938878083682
C           -0.38108007695816       -2.91556846687980       -1.38826477542136
C            1.91955659883595       -2.45213334134157       -0.86687317154378
C           -3.42254122504974       -0.87376654485396       -0.96056201926531
C           -4.42095776432925       -1.78896750343098       -1.21555092874300
C           -2.78035206383101       -3.49000866679456       -1.56790720216847
C           -4.09418394697952       -3.11937103197365       -1.51724016005041
C            0.06064282176998       -3.81698344001430       -2.38067394271023
C            1.38887839289264       -3.97950897200967       -2.64994208121501
C            2.33336153088228       -3.23272048746364       -1.91605821679949
H           -2.50330611319554       -4.51167218096143       -1.76909566331506
H           -4.87628220518616       -3.83778649171686       -1.70313882360755
H           -0.68390853403512       -4.31641866972949       -2.97871549656346
H            1.71790159606833       -4.64377175276996       -3.43220505927551
H            3.38445353060946       -3.29721624349725       -2.14033145356641
N           -2.13239610197707       -1.26926840159669       -1.00205802223959
N            0.59791184123361       -2.35919591059054       -0.57921277562675
H           -5.44700253224525       -1.46412005441959       -1.19707149042475
C           -3.74377792035332        0.53384549728996       -0.68747536127736
C           -3.06587944381338        1.57421158501822       -1.31645603982034
C           -4.77257334283941        0.83235059366950        0.20412610614705
C           -3.40377059108496        2.88681176601005       -1.04418893655338
H           -2.27667034329765        1.35631334825518       -2.01822797691575
C           -5.09965461032268        2.14605234859345        0.47579138938834
H           -5.28152933748440        0.02935192061743        0.71405322938280
C           -4.41488673577558        3.17748897608782       -0.14555851425447
H           -2.87204839063813        3.68876075242640       -1.53431958506736
H           -5.88759791662903        2.36640303714332        1.18075851415870
H           -4.66522980778135        4.20462398241654        0.07384578171052
C            2.89353242320424       -1.72689132020515       -0.03576982463879
C            2.96039564595235       -1.90390123646945        1.34227988054858
C            3.79694771033443       -0.87027491620179       -0.66119477921499
C            3.89589476180443       -1.20684232759490        2.08447471421284
H            2.28168082239436       -2.58176986557712        1.83392065707136
C            4.73259892515665       -0.18164350592696        0.08563239178860
H            3.74648313922534       -0.72981031928631       -1.73088037170621
C            4.77679982085313       -0.34098367153562        1.46084437862939
H            3.92401057508736       -1.33598251956674        3.15502962666620
H            5.42131686576916        0.48790922415156       -0.40661614773805
H            5.50029773353015        0.20888932131183        2.04392377225473
