65
 energy: -110.139046124989 gnorm: 0.000826762736 xtb: 6.5.1 (b24c23e)
Si          -0.55856322166544        0.38331231118474        0.50774956004220
O            1.00437382620497        0.72773380973313        0.20837036947997
C            1.69572912945581        1.95020313992218        0.23366058066188
C            2.56872780406607        2.09743961293509       -0.98667166408916
H            0.96786881332948        2.77050460228051        0.25936602218705
C            2.84869593718531        1.02246162709001       -1.81660396277667
C            3.12702949952049        3.33707367127160       -1.27963838153850
C            3.68064683005912        1.17636388432016       -2.91221832307368
H            2.40057257942017        0.06453417591714       -1.60550226255060
C            3.96090858594979        3.49061019658836       -2.37129930147961
H            2.89626238873714        4.18636708650961       -0.65280081127164
C            4.24427594060125        2.40886761944242       -3.18940961562980
H            3.88750468445751        0.32914925431513       -3.55104651342063
H            4.38827373543993        4.45859444884628       -2.58864395465001
H            4.89601562612419        2.52971226929997       -4.04224470171621
C            2.56350498751438        2.02913972565758        1.50808054975989
C            1.74808598593046        1.88622060362286        2.69398520360869
H            3.07775680142545        2.99294082853328        1.52368613799892
H            3.30745846448472        1.22980470969849        1.48247009747101
C            1.04055914597692        1.75724067432640        3.64949726564933
H            0.41443568012760        1.64031433368851        4.48225235813052
Cl          -1.39778160031410       -0.06350663129728        2.33135278393545
Cl          -1.31848732387837        2.40114706202176        0.50542158480843
O           -1.42510478573577        0.13183361081567       -0.95693300048534
O           -0.15597974496375       -1.38680546304613        0.51387884733236
C           -1.54794157513940       -2.11863013933012       -1.70968362194188
C           -0.14736146591560       -2.33293339879793       -1.61472379006460
C            1.87720928492970       -2.16060531851116       -0.34210162678528
C           -3.50257475808146       -0.88497608778861       -1.06217197716329
C           -4.32014159287180       -1.88039468958820       -1.52586283287779
C           -2.39763411754592       -3.08833444377955       -2.28620187437664
C           -3.75538740647389       -2.98547497155319       -2.19735723898815
C            0.56214395009950       -3.02478490902804       -2.61796541009179
C            1.90252457178209       -3.25429635463445       -2.49613607851083
C            2.56893124024930       -2.81590659999346       -1.34095588447601
H           -1.94256759999635       -3.95770719368654       -2.73211451146724
H           -4.39495396355431       -3.74987132195692       -2.60757867738345
H            0.02782371790274       -3.32466014567342       -3.50430000672477
H            2.44975243890658       -3.76302702692448       -3.27327532075255
H            3.61899483842775       -3.01327176261577       -1.21016473106534
N           -2.16192308184630       -0.98505970487635       -1.20915277066242
N            0.55353265204098       -1.93697437184343       -0.49148408017430
H           -5.38494484208177       -1.79248201165755       -1.39387361801879
C           -4.02576386898391        0.34109802100472       -0.42822738257976
C           -4.07041230246776        1.53287038205864       -1.14120678860845
C           -4.45824910604161        0.30364391305575        0.89154238708418
C           -4.54584321734686        2.68004721777254       -0.53453872418774
H           -3.72041874986642        1.55866021959848       -2.16247741331694
C           -4.92128383752131        1.45874432845064        1.49464919163727
H           -4.40056772187899       -0.61895551965979        1.44893639339957
C           -4.96655397938302        2.64530419453634        0.78370324500952
H           -4.56876306925720        3.60642953074493       -1.08778812197700
H           -5.23277446098538        1.43081915545963        2.52746045310955
H           -5.31751715465921        3.54780013543600        1.26082681996054
C            2.57203067401582       -1.75487159129644        0.88696892778429
C            2.00812053372916       -1.92736255367673        2.14928389729017
C            3.86507903568607       -1.23839499113055        0.78978398176125
C            2.71660823665457       -1.57411327689690        3.28276261247185
H            1.01709183031149       -2.33788081094295        2.24967758484370
C            4.56998392952964       -0.89472671137776        1.92793921609491
H            4.30736936760763       -1.07176134807845       -0.18144085239177
C            3.99684578377710       -1.05934236606597        3.17901175199373
H            2.26214594552694       -1.70266967694275        4.25274825963362
H            5.56710603880262       -0.48843306028619        1.83658915205145
H            4.54519203247525       -0.78110890319248        4.06629359207412
