65
 energy: -110.139448597753 gnorm: 0.000159687497 xtb: 6.5.1 (b24c23e)
Si          -0.35648524016796       -0.01824459657597        0.92604808079189
O            0.34758632026957        0.99068893442909       -0.12625410241834
C            1.02242666612814        2.20706498874072        0.04591732536514
C            2.22784808834207        2.25254039757993       -0.85776523706523
H            1.33285840706362        2.31044919022386        1.09336351543563
C            2.23260371043088        1.55421473091579       -2.05690428996107
C            3.32518979176268        3.03379820488882       -0.52130311534016
C            3.32015687117859        1.63441891312148       -2.90848382556969
H            1.37900727098228        0.94223043867263       -2.30590803304579
C            4.40836809335186        3.12069741625484       -1.37722488589643
H            3.32818933222966        3.57115800118879        0.41596632719704
C            4.40813086327214        2.42190016567763       -2.57328653428274
H            3.31725762132702        1.08556836841648       -3.83966869862267
H            5.25779969490641        3.73221533197561       -1.10926525927268
H            5.25542024230396        2.48908748161215       -3.24051369989536
C            0.07052102414823        3.36671695755515       -0.32011775241756
C           -1.06629491877133        3.40566152938731        0.57305952168620
H           -0.27902954502296        3.21317136777465       -1.34477893672081
H            0.62223344543169        4.30874916768685       -0.26732087178080
C           -2.00356521221304        3.39706609939052        1.31623521224962
H           -2.82172509601650        3.38563549526329        1.97165299659592
Cl           0.71500584633672        0.61715058804255        2.68811185173679
Cl          -2.17488609411645        0.11658610795268        1.92543016379765
O           -1.17183799083805       -0.64490447985246       -0.57380464392974
O            0.32942328556517       -1.56332206808993        1.17095041413038
C           -1.68158768697835       -2.90988396011792       -0.38069187607562
C           -0.29696994431614       -3.22870207886573       -0.41045270381747
C            1.99243327667037       -2.55958492866567       -0.10979738591451
C           -3.41260099017670       -1.25751296987112       -0.52037180520006
C           -4.37631907940835       -2.24080315044756       -0.45735861493355
C           -2.67291152876460       -3.91207337552628       -0.33746637368849
C           -3.99993154018139       -3.58855079113651       -0.35861422927060
C            0.16326314612465       -4.37070672399383       -1.10078034630311
C            1.49231758930941       -4.56460513958148       -1.34389598176977
C            2.41953414488447       -3.60483907914824       -0.88846096092951
H           -2.35704066118706       -4.93693715974015       -0.23292661122759
H           -4.75464719568568       -4.35598869124596       -0.29697853363672
H           -0.57115887174407       -5.04889659431248       -1.50344539480305
H            1.83386164183882       -5.42111491833848       -1.90173021468753
H            3.46911597076069       -3.70160822675918       -1.10814213773696
N           -2.10797559458040       -1.60289900326849       -0.48325374902620
N            0.67256209044003       -2.42422026075408        0.16843328256300
H           -5.41461011591077       -1.96074579276654       -0.50376775493367
C           -3.78841446166932        0.15509101433375       -0.67014244588494
C           -3.16900419757167        0.98272510307535       -1.60227722105727
C           -4.81076083832997        0.67047633234659        0.12473296769747
C           -3.55730711052234        2.30408561501695       -1.72259569587264
H           -2.38563057302535        0.59272608600291       -2.23234559016424
C           -5.18837257923296        1.99303056401032        0.00313838972056
H           -5.27415559624086        0.03961829725002        0.86712978947148
C           -4.56133584273097        2.81471401587451       -0.91911938979174
H           -3.07045048651384        2.94099711055181       -2.44600575199648
H           -5.97026915797051        2.38643290022386        0.63580453968671
H           -4.85082994226266        3.85114993296888       -1.00763836625731
C            2.95135591970112       -1.59210419263594        0.44677713055483
C            3.04327566209246       -1.35358318052668        1.81409481855796
C            3.81502080526044       -0.93118547591294       -0.42387956206896
C            3.96414650171458       -0.44203888136934        2.29663815271075
H            2.39511774796926       -1.87622690093974        2.49874121310520
C            4.73537713114751       -0.02504501921406        0.06542959322098
H            3.74510326660300       -1.11360075987435       -1.48607717824152
C            4.80468327980769        0.22818526962048        1.42544496895300
H            4.01218196113838       -0.24975827940462        3.35694817120239
H            5.39253909051938        0.49058349255763       -0.61810915245944
H            5.51613829113761        0.94660906834294        1.80426748754621
