65
 energy: -110.139618987534 gnorm: 0.000542481153 xtb: 6.5.1 (b24c23e)
Si          -0.10214045118866        0.07146763636862       -0.55645135659151
O           -0.06969583531742        1.08531622778370        0.70941802044377
C           -0.25244687617077        2.48159786656959        0.73077893277683
C            0.78889882991412        3.19123264400323       -0.09594242240500
H           -1.24944172950450        2.71512672472159        0.33729299744025
C            2.10592010781203        2.75606225173157       -0.06272382235075
C            0.44962970425123        4.28036626942623       -0.88531089589294
C            3.07193826238956        3.39342603302847       -0.81908860438409
H            2.36488891806921        1.90016132138116        0.54129988463111
C            1.41839140099515        4.92304625332974       -1.63494559664907
H           -0.57757058499470        4.61123222006967       -0.92572781038945
C            2.73010177104470        4.48025851507977       -1.60498233519037
H            4.09039377824893        3.03454644342635       -0.79584444914961
H            1.14610788752067        5.76540880275104       -2.25376572088216
H            3.48258612098917        4.97735011992613       -2.19975088053752
C           -0.14055792360035        2.93643365404661        2.19817589143593
C           -1.20802031556027        2.39763954388013        3.01096659799985
H           -0.16794624955635        4.02893767886354        2.23091601507362
H            0.82077222994632        2.59280669886907        2.58798476780844
C           -2.10375971022362        1.94376009152597        3.66211993165268
H           -2.88407601970762        1.54741690027668        4.24047075210392
Cl           1.56575551826095       -0.17705262417652       -1.77561460189398
Cl          -1.09697555170207        1.37366880775293       -1.95638999167632
O            0.49684382156962       -1.13796764957048        0.66234052264509
O           -1.35744361798400       -1.00581765261385       -0.95455661069305
C            0.32874602305929       -3.29236866057647       -0.21582294292899
C           -1.08794230333031       -3.24682469381757       -0.12929726091286
C           -3.14838471867866       -2.02151637121339        0.06742378019278
C            2.45687730003879       -2.28561836317642        0.22601447818363
C            3.10972941090762       -3.40312383829299       -0.24487278216415
C            1.00360472593078       -4.43516367975862       -0.69938305522533
C            2.36774216855296       -4.48966341593206       -0.72977671379886
C           -1.82248305767787       -4.42859968812555        0.11997702232332
C           -3.16419952952379       -4.40372608582972        0.36619792835950
C           -3.83556720727553       -3.16352545741722        0.37930375250772
H            0.41616225348815       -5.24416684561664       -1.10033381514464
H            2.87418900377440       -5.35432430302469       -1.12764736831673
H           -1.28033732147015       -5.35814209241754        0.17364498005711
H           -3.70432737266300       -5.31192647490242        0.57833482237404
H           -4.88055397861285       -3.09963377864041        0.63124082454452
N            1.10831198861911       -2.25069907408535        0.23296011226475
N           -1.82411991308721       -2.07598671422452       -0.23268521788019
H            4.18571753584203       -3.42948786970129       -0.22996870505063
C            3.20947386550861       -1.14655484899224        0.76972501413799
C            2.87776755541431       -0.57925467139786        1.99724258331695
C            4.30356338503501       -0.65318563405179        0.06207283941033
C            3.62982053839058        0.46603380683959        2.50267024523297
H            2.03375333909234       -0.95342008988121        2.55474371868946
C            5.04569012608469        0.39555506622168        0.57031205281984
H            4.54143253786993       -1.07163202749468       -0.90317163074868
C            4.71281037883891        0.95710318177958        1.79255655622663
H            3.36563020210390        0.90153189131733        3.45534417511887
H            5.88532444837767        0.77824179737640        0.00936312738360
H            5.29040341018248        1.78015813074593        2.18675309727649
C           -3.81236051536658       -0.71042930383545        0.00763305431182
C           -4.93744659508071       -0.54403734663644       -0.79465430956325
C           -3.33971111076487        0.35981441139162        0.76041171277810
C           -5.56782592985790        0.68420151844770       -0.85931728262299
H           -5.29604649677446       -1.37370418303077       -1.38619602097704
C           -3.98368403868428        1.58163419243044        0.70077144266309
H           -2.47583726605724        0.23843937081425        1.39632360109113
C           -5.09153512763382        1.74892532505610       -0.11275074992185
H           -6.42927537526845        0.81164618975497       -1.49784934744012
H           -3.61324697165647        2.40239973935214        1.29659126934790
H           -5.58232785315272        2.70918011209507       -0.16737020324536
