65
 energy: -110.135819851870 gnorm: 0.000842818549 xtb: 6.5.1 (b24c23e)
Si           0.17471084440405       -0.18837974892395       -0.02088336743961
O           -1.25631639571508       -0.88876530851575        0.39105883612440
C           -1.96083251003429       -1.95579667943247       -0.17415398118279
C           -3.33237669195927       -2.02746069317264        0.44626084496089
H           -2.04556032859512       -1.78834545983296       -1.25812542054820
C           -3.49328355325187       -1.78466462797446        1.80334607755015
C           -4.43665223045795       -2.37567713045229       -0.31868097367244
C           -4.74432577365760       -1.88071123510653        2.38612479268284
H           -2.63135703289186       -1.50225569958231        2.38775703377637
C           -5.68710409824674       -2.47512797893751        0.26546530412209
H           -4.31339918657011       -2.56476003508994       -1.37563943655059
C           -5.84381205753288       -2.22711849658741        1.61875108243409
H           -4.86307032823290       -1.68577481576469        3.44236535419020
H           -6.54269546294907       -2.74560056703320       -0.33663713141397
H           -6.82096833410299       -2.30274550541139        2.07352867878908
C           -1.23827236938008       -3.30157639022635        0.06488520488699
C           -0.03960257645268       -3.40428430076604       -0.73497606675180
H           -1.92164686677473       -4.11693351299832       -0.18724620561541
H           -0.97767913049791       -3.36922905014731        1.12438971185578
C            0.95093120997314       -3.44346746091084       -1.40507962179493
H            1.82349861145163       -3.48197864083426       -1.98414291254706
Cl          -0.17012708087319       -0.17202089065273       -2.08105103680654
Cl           1.26212539529614       -1.25744409250431        1.42781395442865
O           -0.22005670863884        1.23554905555652        0.83537810318667
O            1.73372177276434        0.61695114648961       -0.58894510372097
C            1.24211741379761        3.06786133639967        0.52311788218870
C            2.39690749522434        2.31381330570000        0.87056513905173
C            3.73174417546907        0.34926108377596        0.56954487200978
C           -1.01829271863595        3.10725223505724       -0.28986466878206
C           -0.90387090649268        4.43594204844549       -0.60439543693121
C            1.30741749733290        4.46101189943457        0.31790302350375
C            0.26320564337197        5.14169856855407       -0.24032803466651
C            3.37893361440754        2.82036322385630        1.74466138177128
C            4.48557219494907        2.08329656409842        2.06021388019041
C            4.66529258594179        0.82611034467758        1.46269209591292
H            2.23687021799385        4.96167322965720        0.53614627281504
H            0.33330872406828        6.19968434753001       -0.43310886999245
H            3.20353611457947        3.78039688990160        2.20203516435992
H            5.21704251512954        2.45796289219668        2.75797131230266
H            5.54164782714537        0.23591183515113        1.66919544200034
N            0.00937339557378        2.47152285296044        0.31814665452448
N            2.63192573112593        1.08137564674681        0.29929759909396
H           -1.72229403613447        4.93312331640385       -1.09652543839070
C           -2.24819371121920        2.34241777911496       -0.55957919063166
C           -3.00254422018550        1.81569485386338        0.48313055411839
C           -2.66238104532790        2.15864070434951       -1.87409249371960
C           -4.16511704115559        1.12055849471845        0.21020430010024
H           -2.67753053537164        1.95359841804940        1.50255856604185
C           -3.81400767875846        1.44134527698416       -2.14004825675298
H           -2.06414619054692        2.55136289058096       -2.68207747802751
C           -4.56857329631779        0.92672611239078       -1.09984873460849
H           -4.75288651798534        0.71847144800455        1.02089728568026
H           -4.11958645561656        1.28280672395412       -3.16324777281219
H           -5.46913102530829        0.36818767888385       -1.30663805754136
C            3.95853096538305       -0.90931163583192       -0.15471311856502
C            3.85802826572208       -0.96062811143128       -1.54197084016898
C            4.33789144566362       -2.05019414203740        0.54793699084664
C            4.14068576040948       -2.13648570059899       -2.21302295963780
H            3.56382928066363       -0.08297486945649       -2.09607855856430
C            4.60299358937115       -3.22545565962787       -0.12761104006661
H            4.38474781522682       -2.01704944817698        1.62492630558156
C            4.51246104782546       -3.27024409036734       -1.50957094999313
H            4.06382450571859       -2.16556792803013       -3.29041885422758
H            4.87899200618677       -4.11105668988315        0.42478303576105
H            4.72394243369530       -4.19020160718806       -2.03569372471512
