65
 energy: -110.134258434920 gnorm: 0.000882304731 xtb: 6.5.1 (b24c23e)
Si          -0.19896454318164       -0.17700069801795        0.26560449164556
O            1.02148821533273       -1.22747705066951        0.48588672502863
C            1.50807888600804       -2.34638023994376       -0.20972816317072
C            2.99803078360768       -2.21415241179031       -0.39560295113092
H            1.00908597798770       -2.43068642928910       -1.18141459861135
C            3.79496038602864       -1.83016336070686        0.67496006331395
C            3.59351600839108       -2.53583953171624       -1.60703725012372
C            5.17066373611663       -1.79330589677841        0.54156727942330
C            4.97027952785608       -2.48873191304381       -1.74228391956212
H            2.97616223971233       -2.82828863229307       -2.44458248533680
C            5.76184994259306       -2.12657526983539       -0.66576799437384
H            5.78336212459973       -1.51107725204345        1.38524785176726
H            5.42637737060332       -2.74123311171746       -2.68885622686271
H            6.83716589487833       -2.10213352602750       -0.76957164207981
C            1.22932790488217       -3.61884776974217        0.61811691112730
C           -0.18855759158563       -3.86922495055902        0.73917433492042
H            1.66035464711273       -3.48285683217717        1.61349370098309
H            1.71673638265910       -4.46820908251644        0.13139657980278
C           -1.36776236131826       -4.04488560535899        0.83092231747648
H           -2.40110080573382       -4.20159558852759        0.90722374792316
Cl           0.38722362717346        0.67272023474701        2.12324141010563
Cl          -1.14607653397433       -1.29042230771427       -1.33986326416644
O            0.24335655263003        1.08271600990619       -0.80301309579532
O           -1.75934014785423        0.49456614664329        0.71073795852469
C           -1.21081240893555        2.91529836477075       -0.51867129744007
C           -2.37123475802841        2.14253429010357       -0.83022364366564
C           -3.73131152642812        0.19102732513151       -0.51494419843523
C            1.12630977796992        3.07600132898035        0.01142389169274
C            0.98906180857823        4.41358052535355        0.29323746800555
C           -1.32012957045441        4.30452463787195       -0.32094232981026
C           -0.25054904146374        5.04824775353665        0.09405947237387
C           -3.34076273783443        2.64481196026063       -1.71729427053549
C           -4.45107874487461        1.91463136714861       -2.03851315815652
C           -4.64445336606144        0.66358555469449       -1.42987673138072
H           -2.29393971093769        4.75455784369525       -0.42778710735996
H           -0.35404495063787        6.10333710646289        0.28782001632899
H           -3.14996494003370        3.59519511524383       -2.18896536144978
H           -5.16936474627080        2.28521347866002       -2.75158084960671
H           -5.52149202442650        0.07781418930775       -1.64597763608749
N            0.05649340834773        2.37337117159840       -0.42078264430826
N           -2.63376776229886        0.92544263811542       -0.23119812855218
H            1.84620927100639        4.96826066557737        0.63441711210049
C            2.43705591403853        2.41979871866439        0.10153525825153
C            3.18846137801182        2.56165007492346        1.26495367618829
C            2.96927599847178        1.72165305670957       -0.97908422385368
C            4.45895026906407        2.02376202562185        1.33793918905917
H            2.75714353325186        3.06716900044451        2.11462040844807
C            4.24476312300531        1.19556438474237       -0.90159031840708
H            2.39193087434473        1.60518858021820       -1.88305397008299
C            4.99492049290873        1.35359805654201        0.25098382150043
H            5.03387271982014        2.13111048887026        2.24560820802218
H            5.99488989707033        0.95057272261712        0.30080961006555
C           -3.99500515849232       -1.05867808234421        0.20889058685739
C           -3.87893020432259       -1.12989389434479        1.59512837683370
C           -4.46194815622802       -2.16738619967587       -0.49529361857029
C           -4.24091724032321       -2.28589693366110        2.26230867516122
H           -3.51805665537173       -0.27979609111805        2.15232581710876
C           -4.81849014549125       -3.32021136799582        0.17711820569078
H           -4.51486223036085       -2.12861683153168       -1.57220194169900
C           -4.71826361961375       -3.37952588849448        1.55914695270354
H           -4.14961009540095       -2.33149274728164        3.33711059300112
H           -5.17156068753720       -4.17724481083180       -0.37795703360767
H           -5.00187453203951       -4.28000526712274        2.08522268315930
H            4.65453609076823        0.65820452034926       -1.74348250017022
H            3.32594123269467       -1.55074276271677        1.60596315976562
