65
 energy: -110.057250445112 gnorm: 0.000827373563 xtb: 6.5.1 (b24c23e)
Si           0.11311935000857       -0.41882905134453        0.21783115582795
O           -2.57689234863643       -1.83207898901075        2.03372481439163
C           -2.44893353395743       -2.70650732018929        1.20925979321592
C           -3.12641076908898       -2.75658373675108       -0.08585553356866
H           -1.77203940364500       -3.56347132806899        1.39091747673637
C           -4.05314109637153       -1.76986099713243       -0.42336686428599
C           -2.82178212831167       -3.76149818802160       -1.00250798638546
C           -4.66316372560991       -1.78708834187302       -1.66091385599197
H           -4.26578075160654       -0.99472817409910        0.29631863793403
C           -3.43401865049738       -3.77199053447334       -2.24044929172479
H           -2.08743979264211       -4.50983446402250       -0.74541687496029
C           -4.35236646962366       -2.78641363411828       -2.57032389546466
H           -5.37275068047791       -1.01679696005044       -1.92451450815888
H           -3.19145165290263       -4.54391138317082       -2.95616933601191
H           -4.82256490398382       -2.79433912347770       -3.54320840218299
C            1.92442837386551        0.54365091230854        3.54651511510099
C            1.24435291374464       -0.25866212806177        2.78886532804690
H            1.43908221127454        1.19346281749370        4.25626650867866
H            3.00233430991748        0.58378060267738        3.52140515126113
C            0.57810997298701       -1.00885577641746        1.97012037660773
H            0.31577727884955       -2.01531057539079        2.25406675455196
Cl          -1.47046695051469       -0.00484042311182       -1.07812773657701
Cl           0.26208310729228       -2.44892405760263       -0.55200272978617
O           -0.03505924608755        1.19715454888037        1.00082534382254
O            1.45571251584752        0.12458269136924       -0.70352233826045
C            1.03721123734816        2.88474897092565       -0.18059476193832
C            2.28372918771324        2.22450770257895        0.01891738379562
C            3.55304070518620        0.20209267575032        0.29300619086195
C           -1.34065089303653        2.92859685918884        0.13632083640953
C           -1.41236583682161        4.14585555908161       -0.50852777684077
C            0.96126151753329        4.14869994430020       -0.79578173012731
C           -0.24445664961684        4.76922321584659       -0.97263414804603
C            3.43396845905135        2.95391880796675        0.37934807070950
C            4.58774656939581        2.32465256241422        0.75118076168334
C            4.63184175803319        0.91473938301652        0.74755871586435
H            1.87032648207445        4.58862935941394       -1.17239596519713
H           -0.30448414462721        5.72441828003155       -1.46905622430131
H            3.35332048183758        4.02762389901664        0.43175768538779
H            5.44936111182412        2.88982097035182        1.06688482393365
H            5.51589777766246        0.38649175852122        1.06226636956901
N           -0.13648355986379        2.34013263584270        0.29779819958256
N            2.43350463594025        0.85287016698906       -0.10217728824600
H           -2.37044642122821        4.62335746086761       -0.62229057558667
C           -2.54756390705845        2.29510840828877        0.68319341515834
C           -2.57262721148076        1.73408045448576        1.95771393849328
C           -3.71088675036620        2.28652330717949       -0.08646627114841
C           -3.73451715807494        1.16408912135042        2.44395244259439
H           -1.68532153773962        1.73769776389876        2.56963602397187
C           -4.86822990413496        1.71750791886974        0.40587520982584
H           -3.69119740723321        2.69227746118149       -1.08630316012545
C           -4.88322064795214        1.15300881009215        1.67212037569835
H           -3.73550985657363        0.71471202782704        3.42430042520685
H           -5.76006304152634        1.70418441368040       -0.20356442199081
H           -5.78673542538573        0.69826350634922        2.05143492175374
C            3.59387075935046       -1.26426331419515        0.17726681760092
C            3.41267026332833       -1.88768938756573       -1.05269113427106
C            3.84318264004549       -2.03517092520111        1.30853813291457
C            3.46784759996703       -3.26555964579782       -1.14422212377835
H            3.22290115470101       -1.29336255723995       -1.93307475200361
C            3.88413090467946       -3.41296977450624        1.21183641180002
H            3.97250328415390       -1.55177118862295        2.26505388710453
C            3.69578625165005       -4.03007534188738       -0.01351238088868
H            3.31567807640875       -3.74279318787950       -2.09983506421657
H            4.05730707387726       -4.00618831834731        2.09743109133110
H            3.72056849109086       -5.10697715038988       -0.08554445541330
