65
 energy: -110.135512546334 gnorm: 0.000505369821 xtb: 6.5.1 (b24c23e)
Si          -0.19277469627058        0.06332492302484        1.27294966299805
O            0.41506110341721        1.38412421030488        0.56444980427181
C            0.05328384685926        2.09395671988538       -0.60468376129283
C            1.15697638254453        1.92328368391487       -1.62271172325649
H           -0.86712846445679        1.66130123629260       -1.00720246493585
C            2.20469160991448        2.82368146836556       -1.75993216056648
C            1.14284456189553        0.78700922245870       -2.42431016011763
C            3.19890727729808        2.60425732315608       -2.69884559521906
H            2.25251149595608        3.70281827814115       -1.13723597725758
C            2.14199952456900        0.55884207239612       -3.35251909362275
H            0.33810001226727        0.07616829659197       -2.31061578616095
C            3.17076820002048        1.47491881794961       -3.49885807028088
H            4.00316480826241        3.31788341059236       -2.80308719254369
H            2.11655100608146       -0.33217389376069       -3.96372800964901
H            3.94903037150954        1.30581139778182       -4.22887151059657
C           -0.22840063768978        3.54689563101737       -0.19805037193898
C           -1.44667698956144        3.59511083989738        0.58377883401073
H           -0.33026159338055        4.16665873024017       -1.09281279936468
H            0.59697042949234        3.91444706040307        0.41554402946532
C           -2.45444603466411        3.56186417032554        1.22717220934377
H           -3.32745563691152        3.55658352906046        1.80755828479644
Cl           0.80971391639303        0.53834354012789        3.06898122776662
Cl          -2.01522573063286       -0.20160715806085        2.22321213876483
O           -1.00442748071014       -0.43468990805285       -0.36004441639695
O            0.70507090407232       -1.38826472197024        1.18192797317085
C           -1.03465196912989       -2.75293622482041       -0.59723896399835
C            0.38171174253319       -2.75710902451764       -0.72735568237660
C            2.50122500732952       -1.72091778173713       -0.26720792631069
C           -3.06710136527480       -1.50834902808811       -0.38911075967211
C           -3.80517086121512       -2.66920573522434       -0.45732316209862
C           -1.79502605662516       -3.93309715017421       -0.71602579989776
C           -3.15740017765928       -3.90414353307403       -0.61567599948153
C            1.02064360975789       -3.58018430096946       -1.67598418806508
C            2.34639465046446       -3.42394473170774       -1.96469615834947
C            3.08582631023141       -2.43665281152485       -1.28134768641191
H           -1.26716426257116       -4.86594384549308       -0.82902221448945
H           -3.73381674173459       -4.81370967541148       -0.66527881032435
H            0.41468801342598       -4.28127279362428       -2.22703395457409
H            2.82280108433984       -4.02667180176620       -2.72055764354793
H            4.12271637041369       -2.26377745400864       -1.51377954496214
N           -1.72026981560870       -1.56728048081015       -0.43139144935862
N            1.19347381813040       -1.92279776255852        0.02395623332635
H           -4.87928404487323       -2.60718152840725       -0.42034959051918
C           -3.73252412783074       -0.19774318299496       -0.36647917340221
C           -3.41036020932039        0.77201059043712       -1.31068178651801
C           -4.73885668834985        0.05713053257761        0.56038288236631
C           -4.07216534733350        1.98591649282782       -1.31385075136957
H           -2.65630336424328        0.56730131473052       -2.05654899726698
C           -5.39412023965030        1.27315437200293        0.55403305418752
H           -4.97495343838996       -0.68817674340196        1.30325374752008
C           -5.06179110588399        2.24019196785834       -0.38080178511414
H           -3.81307035586604        2.73540894985439       -2.04650726157272
H           -6.16507594459166        1.46813006562656        1.28459619549111
H           -5.57222651082283        3.19184810382539       -0.38305375027343
C            3.27894578467772       -0.75726255027827        0.52528157764208
C            3.36801941573974       -0.84920033691503        1.91037512683626
C            3.97332592063511        0.24909566482114       -0.14176438545030
C            4.11962022414448        0.07158410973591        2.61682419505006
H            2.84824547737090       -1.63409962902921        2.43578166003386
C            4.71025159519705        1.17368488888213        0.57183139468217
H            3.90844113252028        0.31690619687161       -1.21680363407830
C            4.78193240248466        1.08891372115719        1.95281536936019
H            4.16832980412166        0.00104832856553        3.69179780181193
H            5.22629327168220        1.96374285587168        0.04624026204116
H            5.35335180549771        1.81623507080665        2.51004148774590
