65
 energy: -110.141639021012 gnorm: 0.000313646450 xtb: 6.5.1 (b24c23e)
Si          -0.34221069183206       -0.44279795188735       -0.04541693009925
O            1.06973811511047       -0.16784644433171        0.72284627588045
C            1.74541782425516       -0.99129790826599        1.64330738220377
C            2.40460418584550       -2.16761063880811        0.97155317437697
H            1.02699210706228       -1.35185967012803        2.38839357502555
C            2.86223155218170       -2.06195635151471       -0.33313421455488
C            2.58868934928018       -3.35563024596168        1.66545163436337
C            3.49181766914593       -3.13328246213132       -0.94071271441432
H            2.70591439730888       -1.14244118335377       -0.87561091954184
C            3.22364133682278       -4.42397236077870        1.05924258629400
H            2.21919589382054       -3.44573101286065        2.67649224760067
C            3.67738050736134       -4.31491255883541       -0.24469983110288
H            3.83464551749722       -3.04305209459518       -1.96088952083173
H            3.35807964115984       -5.34744171397741        1.60326276833085
H            4.16812387655834       -5.15252101321446       -0.71859188133449
C            2.81821409542738       -0.13767084919668        2.34605957744708
C            2.23342217301472        1.05610675598534        2.91475028098270
H            3.58030736095628        0.13708895582232        1.61315269333067
H            3.28235786771961       -0.73791942404878        3.13239616110108
C            1.71036120665104        2.04005725292774        3.35104639213435
H            1.26650484286859        2.90012340153412        3.75502373073916
Cl          -0.51464512121264       -1.16622195236665       -1.96297975946564
Cl          -0.78750326971895       -2.34487194030044        0.86760701012649
O           -1.69082609768959        0.18066809768655        0.80959114006253
O           -0.17640980323802        1.16052894801865       -0.87407585513054
C           -2.22667753647551        2.45833958968211        0.37588411705457
C           -0.88791258101529        2.91975577015404        0.48022325158003
C            1.41310432644452        2.70637819412549       -0.15160120462227
C           -3.75869840073419        0.67464316589790       -0.11394714761635
C           -4.76547629523181        1.57142105264697       -0.35512042204326
C           -3.30243094350653        3.36590471443023        0.25350660281787
C           -4.54965105683941        2.94292111226414       -0.10393500303551
C           -0.57120838249482        4.11852562225693        1.15326669374321
C            0.70971952465034        4.58987469908279        1.18080669204213
C            1.71586791019183        3.87643627293012        0.51286617737312
H           -3.09479752459805        4.41715090258910        0.36871331477083
H           -5.35659762341109        3.64631284511358       -0.22906489338192
H           -1.35990646923212        4.62958481683565        1.68070353857248
H            0.95375276623763        5.49766590783496        1.70941668970781
H            2.72606810916769        4.24700796370210        0.49448442203905
N           -2.55142878730738        1.11367104769641        0.31338364374202
N            0.14030235987069        2.25886027070071       -0.16002302203240
H           -5.71886950654599        1.21245379043256       -0.70328251754233
C           -3.94655372528849       -0.77712800381919       -0.28634670004526
C           -3.93472160502097       -1.63633574131484        0.80574001906539
C           -4.13474199927632       -1.28620864367096       -1.56691341417615
C           -4.10478421943346       -2.99480499362515        0.61483750462342
H           -3.78218116783292       -1.24086758155824        1.79803088618115
C           -4.29163484741393       -2.64704937274918       -1.75077577295316
H           -4.12714856787898       -0.61635261088135       -2.41401663369101
C           -4.27704696413695       -3.50165030529706       -0.66134693888022
H           -4.08187159119668       -3.65881284529368        1.46482671325589
H           -4.41502767681697       -3.04008385621579       -2.74853179053918
H           -4.39091572868978       -4.56509795105260       -0.80842423239501
C            2.45991363813805        1.97877134056452       -0.88088073273414
C            2.24968674905938        1.44134258076419       -2.14898400661844
C            3.72485651379518        1.86700084277224       -0.30207286375946
C            3.27527204683859        0.78468008782774       -2.80593662888175
H            1.28727944638322        1.53135849246839       -2.62529779457463
C            4.74295942711015        1.20482285534592       -0.96082466757138
H            3.89678903805498        2.28428563411580        0.67924335269266
C            4.52041739306702        0.65771707101334       -2.21437102009870
H            3.09356647595070        0.36426597468570       -3.78338724936345
H            5.71275875814931        1.11163728744219       -0.49394969228283
H            5.31485818091598        0.13424036469330       -2.72481727394791
