65
 energy: -110.133355725731 gnorm: 0.000454664829 xtb: 6.5.1 (b24c23e)
Si          -0.15073206305530       -0.18287014854771        0.09452388450430
O            1.30194078042624       -0.90806051210709       -0.17655859825559
C            1.64283472538202       -2.26501787470918       -0.28083266428961
C            3.10060504953206       -2.36431339339669       -0.65738934169767
H            1.02579435986020       -2.72228025090776       -1.06888177324738
C            4.08057406698427       -1.92276770547315        0.22265078757816
C            3.48137937444269       -2.90746938792778       -1.87638382395632
C            5.41879611730890       -2.03743723212900       -0.10806098145667
C            4.82063497770254       -3.01637747111423       -2.20931471524645
H            2.72349846208245       -3.24837403679353       -2.56706271804332
C            5.79284149473341       -2.58535210382295       -1.32345794371935
H            6.17515473075633       -1.70136223557343        0.58642545483330
H            5.10555708873268       -3.44138198781666       -3.16085636371928
H            6.83859336926577       -2.67526661794993       -1.57978803365344
C            1.38841583134362       -3.01901091752410        1.04216077648193
C           -0.01362029302257       -3.32460922845101        1.20895863599746
H            1.72150567179962       -2.39167244741304        1.87187621383813
H            1.96683171257033       -3.94710436733670        1.03626791688255
C           -1.18195756246026       -3.56621581441696        1.29899025239347
H           -2.20571163897289       -3.77265724053605        1.38741375775242
Cl           0.17414586931824        0.04705625795258        2.14436016606214
Cl          -1.21246178411340       -1.35469114983905       -1.30984195900515
O            0.27989442115084        1.19348609124653       -0.80758324694542
O           -1.73586498645065        0.62761098608177        0.57258671452985
C           -1.20854882330357        3.02801216962969       -0.62677703630463
C           -2.35169685111012        2.25559735275987       -0.97640263724264
C           -3.70974913112178        0.31573315082268       -0.62637964704468
C            1.04906762531335        3.14864812278395        0.18528612828968
C            0.90902184871559        4.49080117908178        0.43104132642750
C           -1.30005012989675        4.42738465435938       -0.48665961856168
C           -0.27240868309763        5.15508053522315        0.04223667622930
C           -3.30423183707563        2.73108935347117       -1.89877373090686
C           -4.40980667044185        1.99092637126966       -2.21087880261225
C           -4.61649472921550        0.76422039806865       -1.56232072685836
H           -2.23760184554377        4.89918716205276       -0.73240935343191
H           -0.36438694177470        6.21911370950625        0.18596299785735
H           -3.10752782075729        3.66781015914439       -2.39419015349778
H           -5.11907791884347        2.34032570948956       -2.94374140514763
H           -5.49578562459459        0.17638411037268       -1.76289949125464
N            0.02840670554151        2.45819303091302       -0.37412252998041
N           -2.60979983757454        1.04953273306313       -0.35997979002649
H            1.72413962647714        5.02987423489645        0.88284857066077
C            2.31520289140949        2.45605216032807        0.46758756628911
C            2.84309700839251        2.50552737198108        1.75413680688545
C            3.01929640418428        1.80774740291223       -0.54239265313076
C            4.06111959374815        1.91135804623842        2.02477175115391
H            2.28315823198145        2.98719426433069        2.54124879134690
C            4.24415170570706        1.23042530270812       -0.26808932967059
H            2.61195264290516        1.76397734298239       -1.53983532492631
C            4.76707542003851        1.28281347274857        1.01301376447351
H            4.45971773505759        1.94072288978167        3.02792895978935
H            5.72424530133444        0.82967007456084        1.22349607134535
C           -3.98179938060365       -0.90920951462454        0.13753244170504
C           -3.88144567902507       -0.92896575993496        1.52616737738874
C           -4.42642873538561       -2.04735444147444       -0.53242797571338
C           -4.23480015815049       -2.06581224504958        2.22999336910840
H           -3.53404708471125       -0.05667562751755        2.05672749647933
C           -4.76824895823791       -3.18295752156570        0.17565239972413
H           -4.46949432602687       -2.04535866943139       -1.61037006970414
C           -4.68229911187944       -3.19241558755064        1.55952300042351
H           -4.15317477680997       -2.07250189725861        3.30663521928433
H           -5.09956872297755       -4.06499301611954       -0.35243179152431
H           -4.95454607018248       -4.08007057129341        2.11292139943897
H            4.78863227442547        0.73256334152335       -1.05599298843671
H            3.78996205779271       -1.47972516668752        1.16265054405618
