65
 energy: -110.138824343357 gnorm: 0.000410467942 xtb: 6.5.1 (b24c23e)
Si          -0.51475930915060        1.33238446164407        0.71437420062363
O            0.56368303724911        1.80673966830626       -0.38880694610782
C            1.66367259444070        2.67990815047388       -0.31534910489161
C            2.90494249403875        1.94285098918137       -0.75367009061261
H            1.78183595723140        3.03442337323668        0.71631749050735
C            2.82537334518497        0.97797956821705       -1.74964904134184
C            4.13637642880694        2.22608970417511       -0.17829801271461
C            3.96297693359917        0.31424932840846       -2.17169684731116
H            1.86180572368580        0.75119897579256       -2.18070228227267
C            5.27402338358465        1.56405620499875       -0.60524033379001
H            4.19937440246573        2.96648063873456        0.60621940716428
C            5.19079794628115        0.61163903176734       -1.60625351268913
H            3.89296970029475       -0.43311042352394       -2.94856944632441
H            6.22884480536886        1.79047359658020       -0.15438271180069
H            6.07975643912586        0.09751896330538       -1.93932838118121
C            1.40082478875247        3.89062446316626       -1.23132586866670
C            0.27624764400361        4.65375946029663       -0.73384859984102
H            1.18235615525637        3.52670096439490       -2.23844285042694
H            2.29626120396372        4.51651129180546       -1.26196606811367
C           -0.66541350815276        5.23904344446780       -0.28467186637246
H           -1.48696127973505        5.76303897400816        0.10278194045630
Cl           0.32751217886914        2.24731850209882        2.47271129302833
Cl          -2.33960942627855        2.25392614549056        1.01385434948022
O           -1.23130033836414        0.37339367798097       -0.67748980154355
O           -0.12866257283118       -0.19752692563584        1.43603876320646
C           -1.63287705805224       -1.88143455234975       -0.21109311451387
C           -0.24978871984273       -2.08431225885380        0.01430799496857
C            1.83153136473058       -1.14263179615103        0.69909160110472
C           -3.41527129397039       -0.34257036486923       -0.54147896266743
C           -4.37456135151446       -1.33153033211347       -0.49031806618505
C           -2.58290488516841       -2.92589086114244       -0.23756339461774
C           -3.91492839066487       -2.66954559398704       -0.36505321347363
C            0.46648888193670       -3.21367453285223       -0.44276053460557
C            1.82543166636379       -3.26719225738337       -0.37912538956027
C            2.56422594373727       -2.17371697264105        0.16264320155087
H           -2.22750306362477       -3.93510738219152       -0.10464508285919
H           -4.62513573214672       -3.48036194276768       -0.37813664845522
H           -0.09296350630168       -4.01416319659750       -0.89994991003852
H            2.35141407679409       -4.13626078845289       -0.73895781380049
H            2.27884135277365       -0.28626460297894        1.17832844077306
N           -2.11263987312371       -0.61026796421622       -0.44229203136890
N            0.49654947069378       -1.13518068075807        0.67818423910348
H           -3.65201077255656        0.70339279895291       -0.65483265773823
C            4.02487498671273       -2.14661276369414        0.16115747752845
C            4.73645111701945       -1.49269852949375        1.16867426505677
C            4.74292290774077       -2.77323299195545       -0.85903215778319
C            6.11683908496188       -1.46712859596181        1.15288345275438
H            4.20697227040821       -1.02186601089053        1.98237826887610
C            6.12367833452100       -2.74408983352606       -0.87161620498125
H            4.21460117019882       -3.26301246849076       -1.66326875051114
C            6.81743131009241       -2.09193906224164        0.13414930667175
H            6.65068248046052       -0.96066676404921        1.94314274554038
H            6.66220589546289       -3.22924486606432       -1.67272709003393
H            7.89688039938475       -2.07091166798787        0.12423332206917
C           -5.79825093265092       -1.00967139837113       -0.57435606277561
C           -6.24928106591419        0.06858647035741       -1.33777644595580
C           -6.73864259533140       -1.77783121225394        0.11431609594331
C           -7.59636007603147        0.36509481208592       -1.40879617764883
H           -5.54213064580398        0.66279687130693       -1.89574974117768
C           -8.08462901143017       -1.47493335948044        0.04348977329090
H           -6.40959105397668       -2.59904242499373        0.73354661891946
C           -8.51982185009109       -0.40390188667201       -0.71921072405780
H           -7.92935074295512        1.20014734678618       -2.00707650016473
H           -8.79784338188655       -2.07473547789686        0.58955936751486
H           -9.57203243863566       -0.16892613452288       -0.77461317516284
