65
 energy: -110.138017433740 gnorm: 0.000686186722 xtb: 6.5.1 (b24c23e)
Si          -0.40127955459564        1.32076749005399        1.28853202043119
O            0.67532012088341        2.17941450363134        0.44581092957559
C            0.95527549086571        2.28815107803689       -0.93282300185747
C            2.31099372211931        1.68632297222442       -1.20334043995582
H            0.18702365059295        1.75968572847166       -1.50309976210167
C            3.36284318759869        1.94108789608608       -0.33168221024510
C            2.52719883074067        0.87971012245571       -2.31148791716921
C            4.61727511905227        1.41383411568995       -0.57746517932011
H            3.18201162787809        2.54727248595807        0.54313879376029
C            3.78455367204672        0.35635166838314       -2.55846040385884
H            1.70867428328316        0.66684190769461       -2.98476841869625
C            4.83319784350348        0.62925816314231       -1.69751865984853
H            5.43077846160483        1.61733516922099        0.10263222480911
H            3.94631425989995       -0.26413911562282       -3.42746509807229
H            5.81536494627305        0.22681881723833       -1.89383495384647
C            0.92977820118271        3.77958117127067       -1.31411318681892
C           -0.40499613330846        4.31192511005752       -1.14286825365922
H            1.25138568243506        3.89009311012043       -2.35320276091937
H            1.62293416438818        4.31961319307715       -0.66485269413529
C           -1.52586192977803        4.69096752623477       -0.96599112116480
H           -2.49821612665498        5.05351285536120       -0.81475537439093
Cl           0.41349209409818        1.99942115091606        3.10565963431083
Cl          -2.32495165262741        1.90375024218249        1.74764871702659
O           -1.07060057537254        0.54987320777814       -0.32134339653678
O            0.05565505282919       -0.29365396162662        1.69922935203408
C           -1.39962265475207       -1.75527135915116       -0.21784017185667
C           -0.01327037399839       -1.94709701913860       -0.00001464392853
C            2.04102135303231       -1.08305152550081        0.85530438507642
C           -3.22699606761475       -0.24354684555450       -0.38912651299148
C           -4.15049240835942       -1.26076332348070       -0.51086171769343
C           -2.31073665198543       -2.81581094917344       -0.41588694569059
C           -3.64744435076086       -2.58694100956864       -0.54888083052297
C            0.73390950791390       -2.98267729608999       -0.60535563330901
C            2.09133927213665       -3.02621825916901       -0.52178050884826
C            2.80194596244735       -2.01595792645554        0.19373445661986
H           -1.92327488542896       -3.82181782897008       -0.41022246475143
H           -4.32746578619471       -3.41101708893450       -0.69227139002384
H            0.19776280731992       -3.71550495157960       -1.18712355747871
H            2.63656012655832       -3.82649021154836       -0.99415829821089
H            2.45946007242950       -0.29964462230497        1.46708017145876
N           -1.92010839039809       -0.48153808905144       -0.27571017164043
N            0.70529326148810       -1.08836470631896        0.80606715694385
H           -3.49996114299982        0.79926985858266       -0.36637737210655
C            4.26130806561259       -1.98459677871524        0.24146940360971
C            4.93725405444603       -1.44890626655460        1.33987651446469
C            5.01685528029429       -2.49117347500599       -0.81794555140266
C            6.31739505415293       -1.41566780196803        1.37108519019587
H            4.38029905558224       -1.07701196269297        2.18576861343942
C            6.39726655774756       -2.45712900363075       -0.78197318832776
H            4.51980618120750       -2.88613532735867       -1.69094340760053
C            7.05487793417078       -1.91808974092196        0.31125251176221
H            6.82237435294045       -0.99955773221292        2.23024988641112
H            6.96427642628558       -2.84846370364019       -1.61420933209180
H            8.13386452013916       -1.89078852174924        0.33786441103259
C           -5.58115776770832       -0.97674205273845       -0.61043989068543
C           -6.04468824622507        0.17244161716156       -1.25305469227234
C           -6.51603613877001       -1.85628265290421       -0.06191378504354
C           -7.39873484547304        0.42899045585643       -1.34508841169886
H           -5.34043335186198        0.85542007184656       -1.70307049718327
C           -7.86915550606007       -1.59322831287492       -0.15230639426827
H           -6.17854561019610       -2.73641707840226        0.46493573394455
C           -8.31680320104223       -0.45143559905269       -0.79595373456767
H           -7.74156047390125        1.31979863663572       -1.85027974863118
H           -8.57859938342237       -2.28041918971458        0.28482011470140
H           -9.37459604768958       -0.24818903598924       -0.86792153618208
