65
 energy: -110.136520506973 gnorm: 0.000565664613 xtb: 6.5.1 (b24c23e)
Si          -0.14074826369736        0.89685131171430        1.44744349554812
O            0.38630158007948        2.14225338424787        0.55859194163433
C            0.05334725493888        2.52041830444806       -0.75909049143484
C           -1.37558020363649        2.98995261499262       -0.82648614496839
H            0.18518602862329        1.65682391575004       -1.42126902236781
C           -1.89587882871559        3.76710469666033        0.19972679665899
C           -2.19064161809918        2.63322783640877       -1.89121987615267
C           -3.21607937601017        4.17724667374624        0.16414817149598
H           -1.26497296004034        4.02745111834202        1.03626249873685
C           -3.51005275520051        3.04894139052393       -1.92911334801272
H           -1.79089224331053        2.02083820989222       -2.68748735023031
C           -4.02531943922856        3.82002291485756       -0.90101781866063
H           -3.61464335545118        4.77331326727503        0.97137824578830
H           -4.13964388706521        2.76397146299153       -2.75994962606991
H           -5.05744758402521        4.13726370101275       -0.92775138956649
C            1.03469142350026        3.63088348097703       -1.17339659178026
C            2.37505803901855        3.09696943236515       -1.28776431129328
H            1.01673774038845        4.41352025696836       -0.41189383005462
H            0.71780233412024        4.05292196366693       -2.13055481455669
C            3.46261380252612        2.60454100794293       -1.37086303550667
H            4.42654351510122        2.19675430042757       -1.44365055279024
Cl          -2.05941869158017        0.64070137849457        2.17950824657728
Cl           0.60843838853134        1.75352676317507        3.21503929334356
O           -0.67963826964973        0.01803592008971       -0.14986647256753
O            0.94274441655880       -0.42403536877937        1.65028599042147
C           -0.14409908807979       -2.25373634743818       -0.21116242047618
C            1.23553787553181       -1.93613393951183       -0.15615031198577
C            2.92295046015981       -0.37451785270132        0.48851211675877
C           -2.39798180204054       -1.50091421016468       -0.11139254724630
C           -2.90798194540730       -2.77668531960703       -0.23164537767354
C           -0.63539476072072       -3.56487677773404       -0.39751980940209
C           -1.97206335618730       -3.83006235584864       -0.39868564672042
C            2.21846069094471       -2.60826030424919       -0.91836318348291
C            3.49153632008612       -2.13604588552155       -1.01489725128977
C            3.86510713472181       -0.93876417480695       -0.33495161545924
H            0.08239392888475       -4.36338843921063       -0.49459641842765
H           -2.32428593569399       -4.83938944565994       -0.53765306527862
H            1.91482598813323       -3.48022319771558       -1.47540737303843
H            4.22330453523397       -2.65961735770881       -1.60823485948317
H            3.10333532842892        0.50620725857296        1.08487230526029
N           -1.08824268473589       -1.25474570158989       -0.12415407024654
N            1.69627087711299       -0.89044554429334        0.61793455061564
H           -3.01909856740229       -0.62756501321731        0.00778448584019
C            5.18738942123371       -0.33659518244174       -0.49778343020076
C            5.80522554353231        0.34056926982571        0.55594263618416
C            5.85220753713713       -0.41182763209413       -1.72356112013161
C            7.04504972254989        0.92537924168074        0.38473462669414
H            5.31932899005324        0.39208557817123        1.51805620748670
C            7.09065385184634        0.17841322234398       -1.89081167424979
H            5.37966622750498       -0.90717856594089       -2.55896571820432
C            7.69245109541128        0.84891082002453       -0.83835948309020
H            7.50973520494278        1.44396677986154        1.20995598501696
H            7.58635518841413        0.12026511897534       -2.84876268923952
H            8.65944859611430        1.31011701155062       -0.97077149281953
C           -4.34933145834276       -3.01800052689811       -0.20322352090586
C           -5.24453130663735       -2.07985596122111       -0.72064312069285
C           -4.86091011965681       -4.19625773563105        0.34298575164519
C           -6.60493744647926       -2.31632628635753       -0.69325113605332
H           -4.87014572798973       -1.17100655243350       -1.16675106573552
C           -6.22275181431172       -4.42642744141135        0.37201839628822
H           -4.18868025436116       -4.92273518574277        0.77467222391776
C           -7.10049748417775       -3.48943779214433       -0.14751566401126
H           -7.28376589773767       -1.58235212174976       -1.10163584481338
H           -6.60227576429537       -5.33975168977135        0.80602543413425
H           -8.16439015120536       -3.67129869828201       -0.12554881357964
