65
 energy: -110.134596856067 gnorm: 0.000588279657 xtb: 6.5.1 (b24c23e)
Si           0.26099095606019        1.74436494798011       -0.75726143530197
O           -1.33925098065343        1.73345138862598       -0.48289823294164
C           -2.32405917875173        2.04157354557740        0.47755494455268
C           -2.26625651815618        1.03947108031268        1.60680781514905
H           -3.27305859854370        1.91254829455196       -0.06560273404150
C           -1.10381249183558        0.88368970714576        2.35181349300528
C           -3.36361561065476        0.23585994801859        1.88781356094986
C           -1.03185551027586       -0.08221600031629        3.33964439635889
H           -0.25001233654239        1.51180523203747        2.15089535283968
C           -3.29763517407475       -0.71254041296667        2.89324089864147
H           -4.27425145449098        0.35333534339627        1.31706705183573
C           -2.12771050270901       -0.88313461359835        3.61263942109513
H           -0.11854508570586       -0.20356590521606        3.90344213612731
H           -4.16269214679410       -1.32033912239744        3.11498899421705
H           -2.07241458811649       -1.63290248100949        4.38837559718314
C           -2.26956202481288        3.48586824168014        1.00128974732743
C           -2.38696883993146        4.42267750139619       -0.09535639333372
H           -1.32656837043122        3.66187398175673        1.51989308705035
H           -3.09797215278652        3.62196347509019        1.70243206976256
C           -2.48280673727547        5.14649553099522       -1.04290021218755
H           -2.54806728615725        5.80988150252431       -1.85236036159164
Cl           0.89200568310136        2.43822278218816       -2.56366383130702
Cl           0.86627358195847        3.44995093589152        0.37091363452113
O            1.31262021508380        0.89646348895740        0.30979056876981
O            0.03815719141205        0.11063213610967       -1.64215016846821
C            1.37043960430986       -1.49010776824809        0.14265854643417
C           -0.01861214209494       -1.63571072556595       -0.09121745933884
C           -1.97317185168573       -0.89347741983410       -1.21453077983934
C            3.33268776739132       -0.13413971132347        0.05668788624618
C            4.17873277800774       -1.20831462234042        0.16550046914746
C            2.21727850647920       -2.60064983604215        0.37180897768012
C            3.57242974359114       -2.48165645115093        0.38014683005701
C           -0.80297728021047       -2.64749835468499        0.50789437512290
C           -2.13914772817445       -2.75001672380311        0.26719644809314
C           -2.77684497175971       -1.84378141941843       -0.61946537498987
H            1.75519607659426       -3.56839741733253        0.48311974247191
H            4.19566052718356       -3.34448444391693        0.54924568135124
H           -0.32174632041551       -3.31348660526977        1.20558774716521
H           -2.71426778110690       -3.52720865148707        0.74313127324365
H           -2.34434613264464       -0.14825831560377       -1.89951184430221
N            1.99889699882289       -0.26153684422470        0.09714394863637
N           -0.66637073382450       -0.81060535167794       -0.97839733394270
H            3.67904194581783        0.88250536141494       -0.04883152948927
C           -4.21084319788601       -1.89966994966728       -0.89258085316355
C           -4.72562326655329       -1.49428851101378       -2.12652760024431
C           -5.10393476882554       -2.35690803064218        0.07914288120239
C           -6.08357602148263       -1.54086589697423       -2.37453457909771
H           -4.05512503618415       -1.16476429959582       -2.90547699809938
C           -6.46165451565386       -2.39787940121620       -0.17154378540573
H           -4.73270061176019       -2.65699760602059        1.04700395186635
C           -6.95874074158464       -1.99032250269643       -1.39877976247489
H           -6.46231398126083       -1.22787263590492       -3.33630264893631
H           -7.13739400033748       -2.74722922808185        0.59552196677995
H           -8.01985728119088       -2.02410983269779       -1.59402696484968
C            5.63074505460128       -1.05015044482533        0.08801258891545
C            6.25815211957666        0.09374721085947        0.58451272086637
C            6.41931363202982       -2.04863372197644       -0.48587812288427
C            7.63057728856307        0.23124767753152        0.50847788207704
H            5.66987017296431        0.86707479022779        1.05466936429617
C            7.79114112934728       -1.90434905362619       -0.56415911309620
H            5.95024151044614       -2.92968143108126       -0.89868216141570
C            8.40268875660323       -0.76560419378079       -0.06596601375047
H            8.10154661959750        1.11995001698193        0.90181344598639
H            8.38637313015943       -2.68270349895678       -1.01875007937436
H            9.47494896299599       -0.65534168319297       -0.12515012567010
