65
 energy: -110.138817942868 gnorm: 0.000277049376 xtb: 6.5.1 (b24c23e)
Si          -0.51690781523749        1.31674118161949        0.78067126712963
O            0.42189778314655        1.91611707628542       -0.38595732348658
C            1.50632866758949        2.81142187836572       -0.35096422435973
C            2.76836453997931        2.07044608337690       -0.71755875897693
H            1.60032337284138        3.23464488169112        0.65669901424602
C            2.72282516610270        1.05154263011781       -1.66091358288646
C            3.98093093632478        2.39368636818616       -0.12381536781973
C            3.87485466743792        0.37115268718959       -2.01124872284500
H            1.77300326284318        0.79466610580798       -2.10568611593336
C            5.13334369875616        1.71420721433056       -0.47876803276454
H            4.01722067346223        3.17653734393343        0.61994992591434
C            5.08375862880371        0.70531379196632       -1.42544935199302
H            3.83125887410135       -0.41980802507900       -2.74572800105579
H            6.07330899380462        1.97058548514638       -0.01285049331580
H            5.98331499052331        0.17532073379281       -1.70026308759199
C            1.23277925314284        3.95025387681051       -1.35113363472907
C            0.06893223271468        4.70456578785589       -0.93731871724611
H            1.05725522506277        3.51609574804599       -2.33859372719901
H            2.10789619392976        4.60347143953480       -1.39651915708087
C           -0.90413479028526        5.28520294240160       -0.55401894621969
H           -1.75585468952715        5.80337576829378       -0.22878305170633
Cl           0.34955969248699        2.29273569644314        2.49242451067530
Cl          -2.39566620652975        2.07310613366878        1.19671409237916
O           -1.21611226557982        0.30224995129361       -0.57557348803787
O            0.01455040527508       -0.16612912565954        1.49836670414579
C           -1.56089408797800       -1.94245894371860       -0.02474935487850
C           -0.16798834658650       -2.11776475617016        0.16172363216077
C            1.93764927429398       -1.14641871072057        0.72240401137540
C           -3.37951570318571       -0.46248290432273       -0.41898747668759
C           -4.31726509942314       -1.46806962997616       -0.31644005892886
C           -2.49071397279372       -3.00497964886909        0.02207985106751
C           -3.82880203790016       -2.78485291974094       -0.10873284631886
C            0.53436386686621       -3.26720604346549       -0.26830867040140
C            1.89440017349662       -3.31927403905944       -0.25408240766038
C            2.65080485231291       -2.20295824202012        0.21122841718939
H           -2.11414780616823       -3.99716793369607        0.21200551328424
H           -4.52125208416921       -3.60984841697443       -0.06508797634098
H           -0.04021413318355       -4.08828918276130       -0.66622303628004
H            2.40800125092862       -4.20391697687602       -0.59335941895226
H            2.40276806116038       -0.27011117954777        1.14588545070603
N           -2.07143848775674       -0.69450652079682       -0.30598377833366
N            0.60140038325252       -1.13463706802766        0.74681058596822
H           -3.64004919765969        0.57014021964561       -0.58629590160833
C            4.11103727513142       -2.18219341145195        0.16205879577502
C            4.85631559653820       -1.50916419357501        1.13163578030989
C            4.79281721572273       -2.83602140415350       -0.86571063429898
C            6.23576558960644       -1.49199625895335        1.07232342402340
H            4.35340108752719       -1.01665115742569        1.94942258606259
C            6.17270793553578       -2.81292737882814       -0.92353588346337
H            4.23630660889852       -3.34244767718329       -1.64031687388682
C            6.90067968098205       -2.14231808032799        0.04542317686698
H            6.79694456226174       -0.97093956428295        1.83359915494059
H            6.68364802105665       -3.31770546626816       -1.73054862128185
H            7.97935668436724       -2.12657314046672        0.00036559485170
C           -5.74654963893930       -1.18450976551216       -0.43519474099709
C           -6.20982967079986       -0.16855059853686       -1.27317454254613
C           -6.67992811542566       -1.92926703494810        0.28764790751745
C           -7.56198825351719        0.09018039696945       -1.38363153195579
H           -5.50732048515152        0.40493762647020       -1.85813146455593
C           -8.03124375784913       -1.66409488045939        0.17706946672072
H           -6.34234185663781       -2.70108566713430        0.96322166888031
C           -8.47858420517937       -0.65530842036626       -0.65991616404064
H           -7.90427715558061        0.87651045515327       -2.03993433145314
H           -8.73943076813707       -2.24485362614412        0.74961190858458
H           -9.53494174675049       -0.45038851128301       -0.74675694067654
