65
 energy: -110.139128534325 gnorm: 0.000889284612 xtb: 6.5.1 (b24c23e)
Si           0.05602303900633        1.38236719387629       -0.42513928262227
O           -1.44817770059381        0.98865818614953        0.06459163996817
C           -2.33293895276844        1.62937267682043        0.94934912148725
C           -3.05554623296327        2.77154849239901        0.28248153850499
H           -1.76826191283919        2.01136795482322        1.80787270207586
C           -3.31819151618112        2.74193717585493       -1.07918724428752
C           -3.47449603487464        3.86175023479875        1.03305621998253
C           -3.98519856165692        3.79101015234072       -1.68594403339410
H           -2.97643690687493        1.90326833539663       -1.66715712739470
C           -4.14820225838318        4.90655821072076        0.42759568446347
H           -3.25776885511665        3.89529358185897        2.09087801948576
C           -4.40483815020604        4.87351113852525       -0.93295776002470
H           -4.17354948961630        3.76361710336275       -2.74909386502402
H           -4.46542396267367        5.75416217337285        1.01722280452920
H           -4.92386386139680        5.69411177367149       -1.40604976656804
C           -3.33809701608353        0.56526127970522        1.43639126476551
C           -2.64848854315589       -0.49443974427994        2.13893869604817
H           -3.86673405821118        0.14889002297142        0.57412495769158
H           -4.06394712042250        1.04114369474860        2.09981989461399
C           -2.01905103317821       -1.34561593535814        2.69705175468868
H           -1.49344004641986       -2.09554655703274        3.20820976132329
Cl           0.46626927858555        2.32592612808509       -2.19316397136861
Cl           0.32069039518187        3.10407860600929        0.81100744709790
O            1.31610101479216        0.67689959624988        0.50363219686454
O            0.03040051583886       -0.15124483990305       -1.43760161751417
C            1.86434522488485       -1.59753480103901       -0.00077697038305
C            0.51900735377806       -2.02430311265091       -0.12853539857626
C           -1.67184779662031       -1.60245605404575       -0.93874257582470
C            3.47315194277488        0.16527585546396       -0.04093188978985
C            4.53449603295246       -0.69525965797919       -0.16180458830706
C            2.94740307248998       -2.50803866468370       -0.01333147368740
C            4.23924773220003       -2.08921555538470       -0.09581528305074
C            0.03943797470314       -3.24673480854429        0.39625332300793
C           -1.27240333001829       -3.59947505808369        0.29403905165876
C           -2.18725774210320       -2.75153658358881       -0.38161157613998
H            2.71639473440129       -3.56133616543708       -0.01564016463805
H            5.04552452843515       -2.80405679448172       -0.11122932519079
H            0.73347183817696       -3.87267239899513        0.93395264188823
H           -1.62240355707613       -4.52654468608463        0.71890655997794
H           -2.27116818405154       -0.89112510869414       -1.48279030822567
N            2.20954869635196       -0.26267565403695        0.08824618245075
N           -0.38915470183381       -1.26794647035000       -0.82663337272647
H            3.58118796251290        1.23881475212000       -0.02275944475088
C           -3.61329790821156       -3.05731856511059       -0.47020701753643
C           -4.35210907187376       -2.72569945667639       -1.60712555226359
C           -4.26924194141900       -3.67414949551384        0.59595747015202
C           -5.70273759433040       -3.00753091278061       -1.67498250463754
H           -3.85828719539147       -2.26846251693028       -2.45159982361237
C           -5.62099234595840       -3.94975143447812        0.52566455039047
H           -3.72127300645279       -3.90723963308928        1.49552704654241
C           -6.34295576015715       -3.62067149748660       -0.60997472515011
H           -6.25955939366159       -2.75154681527003       -2.56460286362591
H           -6.11557490557504       -4.42142203125263        1.36186055642510
H           -7.39867562499295       -3.84002501375549       -0.66520537712006
C            5.90208409226777       -0.20501054946474       -0.33061158813954
C            6.32449194571833        0.97617179273644        0.28136169160415
C            6.81476098680843       -0.91622479825423       -1.11124710021900
C            7.61937544198542        1.42834076395927        0.11662892205727
H            5.64224573272182        1.52848532540377        0.90925980054643
C            8.10715817255796       -0.45727904913999       -1.27726209263959
H            6.49921597517596       -1.81827921321906       -1.61427232331833
C            8.51569777261704        0.71500315911768       -0.66272973442713
H            7.93277881956248        2.34089945334561        0.60130287655174
H            8.79873872132173       -1.01459684271299       -1.89181009846940
H            9.52670427552846        1.07113566189688       -0.79099753619564
