65
 energy: -110.137195596645 gnorm: 0.000888885972 xtb: 6.5.1 (b24c23e)
Si          -0.49360365955451        0.80883402351416        0.82201736525190
O            0.03956442039053        1.82200479128887       -0.31906359653983
C            0.16045944982253        3.22350256046491       -0.26437798871636
C           -1.18778388201334        3.89100578411070       -0.35751286364537
H            0.63760785848946        3.50393303205315        0.68365097826936
C           -2.20759077052899        3.30437939084186       -1.09311339369763
C           -1.41773160488514        5.09853329990288        0.28716589764315
C           -3.44699663659089        3.91328728441159       -1.17551206076859
H           -2.02575681333522        2.35867056655032       -1.58097020313509
C           -2.65470729725542        5.71127167026106        0.19597472859103
H           -0.62861586465102        5.55066048037974        0.87041050476325
C           -3.67167821652886        5.11890877901751       -0.53364120886700
H           -4.23966731360166        3.44475301649491       -1.74025785350180
H           -2.82819477759052        6.64869261094630        0.70371067229530
H           -4.63978761984147        5.59379003384032       -0.59611676718912
C            1.05560488691450        3.65478378633111       -1.44086490007870
C            2.39640075923604        3.13263173786511       -1.29161360970279
H            1.08532097301688        4.74640731426274       -1.48180380878770
H            0.61682381282324        3.27385662135544       -2.36621563664241
C            3.49319234443426        2.67868257315430       -1.13899276881035
H            4.46441514086567        2.29949023981242       -1.02287079279976
Cl          -2.48354571663465        0.67444534281415        1.40905458450057
Cl           0.01749452594057        1.95752921182822        2.56986498492810
O           -0.82855507277239       -0.32448619116940       -0.57609562104034
O            0.67814943115345       -0.33253044512881        1.36455763533179
C           -0.14866627263014       -2.53295240847332       -0.20064131146265
C            1.20128165331194       -2.11625470317733       -0.11034148595393
C            2.75875499452439       -0.38486122070546        0.40315271388545
C           -2.44633600472908       -1.94330659817448       -0.36043008440254
C           -2.86601195797345       -3.25378300286611       -0.28347816778255
C           -0.54312035649151       -3.88995265243567       -0.18688037874353
C           -1.85638933660911       -4.25010888592621       -0.21626539808205
C            2.27501481917533       -2.84881304554721       -0.66817710225849
C            3.53299816086838       -2.33376337180360       -0.73173982700825
C            3.79814314401012       -1.02883560629520       -0.22227230678263
H            0.22803900948867       -4.63867584527653       -0.10359894347777
H           -2.13495741971802       -5.29129513785775       -0.19836754226808
H            2.05705148074090       -3.81316692642483       -1.09825011318703
H            4.33526703942549       -2.90643238752332       -1.16795464642852
H            2.85139955777739        0.58950683885485        0.85691215953625
N           -1.15608943197094       -1.60546965767857       -0.34602798080535
N            1.54291720371102       -0.93046664701813        0.50311240166151
H           -3.12924883753645       -1.11151556125629       -0.42324597179901
C            5.11457521356898       -0.40545407016550       -0.34691284387587
C            5.60695920901147        0.44164177725918        0.64860138748571
C            5.90317355014003       -0.63697240199420       -1.47554230641594
C            6.84557809517559        1.03940006298607        0.51409096279343
H            5.02269481132655        0.61802835725805        1.53893784856516
C            7.13967459908041       -0.03403902038715       -1.60705701684016
H            5.52985110129818       -1.26800136493853       -2.26816969782538
C            7.61641419815159        0.80604337129411       -0.61398238052746
H            7.21164085256724        1.69164920515993        1.29303992401973
H            7.73277063813155       -0.21611188614411       -2.49120890746050
H            8.58209558701449        1.27700037025808       -0.71851232659738
C           -4.28776788592682       -3.59446410085064       -0.28505757243445
C           -5.20686917531753       -2.83903962305166       -1.01515893066424
C           -4.75478577943499       -4.68763516067009        0.44629588472336
C           -6.54778995851759       -3.16991709479162       -1.01385972737327
H           -4.86348555083506       -2.00298119613236       -1.60491408289412
C           -6.09777425867660       -5.01163595379876        0.44888979187869
H           -4.06508337285905       -5.26846339696109        1.04046672553989
C           -6.99955192075354       -4.25643914575840       -0.28238942355948
H           -7.24545306206259       -2.57876606030714       -1.58832759993891
H           -6.44398495635003       -5.85546102688216        1.02740966696234
H           -8.04839673740518       -4.51208233699609       -0.28130866785999
