65
 energy: -110.137136103575 gnorm: 0.000984348462 xtb: 6.5.1 (b24c23e)
Si          -0.11866855020176        0.91308968437668        0.75657715796348
O            0.85111573122469        1.58273458446848       -0.35146309652586
C            1.46375971419687        2.85228757989709       -0.30534284274288
C            0.43840151124190        3.94332067484963       -0.47297043652380
H            1.96405613443392        2.96948165020051        0.66461040737615
C           -0.59320357436887        3.78362769796763       -1.38835168367433
C            0.50247682828825        5.10025451785777        0.28995576866258
C           -1.55046268019804        4.77001582782595       -1.53893355153927
H           -0.65046327194044        2.86926351555951       -1.96035723090364
C           -0.45302884217478        6.08899970798028        0.13425433934839
H            1.29388447950826        5.21742699280003        1.01589601317056
C           -1.47997190901517        5.92597032319065       -0.77984816306976
H           -2.35541981697544        4.63536536187819       -2.24688171130536
H           -0.40135095139647        6.98445775533180        0.73600303791631
H           -2.22946483136563        6.69530395431915       -0.89431893194320
C            2.50705786872483        2.90530033090259       -1.43450003787504
C            3.56561235985202        1.94448883171985       -1.21103641016566
H            2.92658008812553        3.91343255586927       -1.48017940891528
H            2.00813887919775        2.68325353124491       -2.38089569334408
C            4.42063037125518        1.13312132433383       -1.00301006349855
H            5.18879992325594        0.44089994173774       -0.82545405968637
Cl          -2.02003147742221        1.65360603035581        1.17043353355049
Cl           0.68384742501777        1.82762640582978        2.53196984426075
O           -0.80269692505807       -0.06031343315794       -0.62948502951434
O            0.50104490794684       -0.57401809194502        1.38136383703688
C           -0.98942778982715       -2.35384634088189       -0.20745958610305
C            0.41572088589050       -2.45094078461109       -0.06587013519087
C            2.46750096992133       -1.39200779182574        0.52899759761160
C           -2.90865464963064       -0.96554682244483       -0.41628935141080
C           -3.77954939028564       -2.03117165908935       -0.33573754787875
C           -1.85130918633531       -3.47342504947655       -0.20378452152603
C           -3.20451402353023       -3.32802652971028       -0.25695939485347
C            1.17542428308796       -3.52459093998513       -0.58490289761324
C            2.53627402053564       -3.49722730998332       -0.59042754010265
C            3.22998303113367       -2.37391092558448       -0.05398011086224
H           -1.40804988927870       -4.45144191309310       -0.10659505487643
H           -3.84441791627766       -4.19548533071741       -0.24659918162923
H            0.64245591503591       -4.34712857126826       -1.03408245269020
H            3.09777199870894       -4.32056578251739       -1.00056454434921
H            2.88696010097860       -0.51296002151280        0.99244761524996
N           -1.58472321655461       -1.12447766947804       -0.38556529134655
N            1.13357799083908       -1.46033175961315        0.56806610836662
H           -3.23717713596074        0.05858360767447       -0.49468447090051
C            4.68747101302907       -2.27052394722608       -0.10824297939352
C            5.40495929236394       -1.68618400745179        0.93780474637380
C            5.38928632948586       -2.74573174899626       -1.21732293968737
C            6.78117790651868       -1.57917803998938        0.87178310318985
H            4.88151212966567       -1.33086766372982        1.81250018256851
C            6.76507103139785       -2.63068324289176       -1.28149304990660
H            4.84860544893809       -3.17716265365898       -2.04675198919546
C            7.46661336756148       -2.04831580255605       -0.23808086649247
H            7.32239725280306       -1.12619470431262        1.68934505482215
H            7.29280153875966       -2.99214198802604       -2.15193893649754
H            8.54121844239528       -1.95884201331163       -0.28976369392953
C           -5.22716632009767       -1.82812206259856       -0.33938400768411
C           -5.80623185543288       -0.77646025312779       -1.05195536921212
C           -6.06297775372794       -2.68577075664610        0.37819770128784
C           -7.17505370342260       -0.59249750840160       -1.04619407620612
H           -5.18162532863756       -0.11377320278002       -1.63092457287557
C           -7.43123446277050       -2.49554416315224        0.38413946450603
H           -5.63506096102320       -3.48856235907193        0.96003629453703
C           -7.99375203769052       -1.44983765485336       -0.32890795665715
H           -7.60749392412866        0.22365671889152       -1.60581061406775
H           -8.06213940360347       -3.16392741431072        0.95149364926301
H           -9.06321439298550       -1.30277419308148       -0.32414797269616
