65
 energy: -110.136640286183 gnorm: 0.000932365310 xtb: 6.5.1 (b24c23e)
Si           0.09597159348954        0.88390538475271        1.46223749160708
O            0.99587678228775        1.93639875623310        0.62198553990274
C            0.91146847131677        2.32664698907261       -0.73045900603555
C           -0.38374938318678        3.04375643144722       -1.00248397452208
H            0.96889235284929        1.43215305051016       -1.36334685573518
C           -0.89622176581863        3.92851082862909       -0.06352653194654
C           -1.08881116905458        2.81097357348551       -2.17481433638528
C           -2.10366314466833        4.56417338605917       -0.28937930875355
H           -0.35337182254512        4.09738325047078        0.85435716269121
C           -2.29378224711810        3.45173266829174       -2.40319690959744
H           -0.69566795821218        2.11771600225188       -2.90519527073964
C           -2.80468869832652        4.32704092442870       -1.45967190210802
H           -2.49975594302889        5.24214309989524        0.45167887055611
H           -2.83897527969799        3.26119870726678       -3.31670067821801
H           -3.74955179404069        4.82008529978741       -1.63503734163159
C            2.12776087539763        3.22505119663595       -1.01772334725674
C            3.34720456640537        2.44656321407734       -0.96968725514534
H            2.16510815247299        4.01196472147656       -0.26139008827757
H            2.01452660063754        3.68005915317632       -2.00514111188113
C            4.31795655519759        1.74765287112270       -0.93174395392573
H            5.18815096886107        1.16395901285724       -0.87913336979722
Cl          -1.83951810194755        1.15387192315811        2.14228032524889
Cl           0.99645342715376        1.47302108838621        3.26660244175275
O           -0.61500596254260        0.23553865273556       -0.17491193422202
O            0.74226467857323       -0.70107080928723        1.65545727758953
C           -0.72018137473133       -2.09054980049745       -0.31773253567590
C            0.69106165062430       -2.16338564302650       -0.21239452911339
C            2.71096356972529       -1.14776464481686        0.55721610395600
C           -2.68565633517667       -0.75432946229489       -0.22467820667342
C           -3.51959135987823       -1.83859023400483       -0.40265319492121
C           -1.54265964051635       -3.20920894814537       -0.57501319403724
C           -2.90058258480811       -3.09921526418397       -0.60739616533231
C            1.48440678163091       -3.04164802365968       -0.98520682001330
C            2.84030867946313       -2.92666895764796       -1.02646220003655
C            3.49610396244705       -1.90776417934654       -0.27315789470753
H           -1.06608593067608       -4.16840355480815       -0.69864850100871
H           -3.50983081723989       -3.96761459917509       -0.79897986172002
H            0.97783094375899       -3.77280657730002       -1.59526595342987
H            3.42689152611287       -3.60080462214621       -1.62960937031344
H            3.09954873911540       -0.37580760664935        1.20280170399884
N           -1.35874957040083       -0.87514403014211       -0.20736002741782
N            1.38637223077957       -1.31694414009025        0.62762186214075
H           -3.04836880744240        0.25085139320805       -0.08055829661191
C            4.93641214757590       -1.67859185155553       -0.37304602684906
C            5.67714596929818       -1.25849537113349        0.73383982382579
C            5.59702749854423       -1.85931730180531       -1.58977969866188
C            7.03433738861774       -1.02411343621794        0.62274181121776
H            5.18985756110579       -1.13297665289744        1.68865329669947
C            6.95375431599172       -1.61893122116229       -1.69695919438023
H            5.03666369869432       -2.15766842077839       -2.46355080915012
C            7.67814788992277       -1.20106168180562       -0.59216759708358
H            7.59356309312986       -0.70090087142288        1.48820457179343
H            7.44776970578629       -1.75238071995082       -2.64833967690035
H            8.73774703148350       -1.01281773348400       -0.67755031645400
C           -4.97280701071257       -1.68358954478343       -0.38632721712331
C           -5.57851036372181       -0.51618013643635       -0.85493067552988
C           -5.78692160147084       -2.70473621608479        0.10717722154457
C           -6.95262404314774       -0.37874504608152       -0.83009452986286
H           -4.97029298201603        0.27816494168807       -1.26047660215274
C           -7.16051064505375       -2.56096766376979        0.13362672895447
H           -5.33850066557809       -3.60446208974445        0.50144045559576
C           -7.74972069947338       -1.39877398049009       -0.33598284391907
H           -7.40611078691195        0.52909589160954       -1.19960994029589
H           -7.77469477913379       -3.35773507546678        0.52685626649284
H           -8.82330114015936       -1.28775730041541       -0.31512490000975
