65
 energy: -110.139074633976 gnorm: 0.000553677778 xtb: 6.5.1 (b24c23e)
Si           0.41566284607015        1.70338746868544       -0.40817792183323
O           -1.18771121473248        1.65369360947417       -0.14630715474332
C           -2.04392477613357        2.23335912159789        0.81570189186727
C           -2.61997115790796        1.07542874547478        1.60241559857145
H           -1.44757095210243        2.86976678431915        1.48346194803235
C           -3.96319520578374        0.72918099438656        1.60465821285812
C           -1.71875928683082        0.27609919506465        2.30094635704125
C           -4.39668621208275       -0.38744530982447        2.30086016258464
H           -4.68848039351602        1.32388556531292        1.07176235556044
C           -2.14832422642987       -0.84832687795462        2.97848485725659
H           -0.67290366760543        0.54715754490150        2.30436763149871
C           -3.49293906924250       -1.18191806940902        2.98238565953590
H           -5.44736723350672       -0.63773478746587        2.30193541208685
H           -1.43529250324626       -1.46082697875599        3.51154390081956
H           -3.83377351916859       -2.05451450628468        3.52059268323541
C           -3.07267723913435        3.10850411595293        0.09009096448938
C           -2.38528463992845        4.16090224820413       -0.63154856378054
H           -3.75501494580070        3.54636369134530        0.82265004976703
H           -3.63901717843082        2.49954989421472       -0.62056687005598
C           -1.76396011351883        4.98831578186370       -1.23119202645254
H           -1.22756926737393        5.72486654342167       -1.75011767972155
Cl           0.89783139081113        3.25845460605736        0.97557181933264
Cl           1.24962755882522        2.58375538192539       -2.04478163634106
O            0.17481401953373        0.23506386901349       -1.50221989142860
O            1.37696880616449        0.68634836546063        0.60125757807687
C            0.16927227786196       -1.75055834040999       -0.27265948077125
C            1.55704999127257       -1.60796165918240       -0.02512103899853
C            3.45610699809789       -0.17863332226618        0.19472640785388
C           -1.83011171204981       -0.82830213102248       -1.15877396824176
C           -2.61058538783220       -1.87420748771187       -0.71090077228233
C           -0.58386713827694       -2.87405644225106        0.13577024643709
C           -1.92990184269765       -2.93807908899867       -0.06180047934979
C            2.45017041076154       -2.70416754669479       -0.03018878795979
C            3.79907266256308       -2.53044517287923        0.02039729994124
C            4.34824569848787       -1.21599218229932        0.09102522050020
H           -0.07027598346848       -3.66324541020273        0.66085629250770
H           -2.48078166201061       -3.80296620094173        0.26906670725103
H            2.03047249300484       -3.69209198978896       -0.13405128810887
H            4.46002304166757       -3.38167263810502        0.00844658331841
H            3.75631792236916        0.85223825639595        0.30187603209987
N           -0.51382035778213       -0.78568065056421       -0.97230979948682
N            2.13058311967673       -0.37116133209070        0.19291027305878
H           -2.22647999160324        0.02891137342389       -1.67723122909239
C            5.79194512281111       -0.98201590559349        0.07699457100153
C            6.35810125089422        0.05816066348344        0.81621355964497
C            6.63379699881559       -1.80094927769779       -0.67707642133976
C            7.72295132197677        0.27011737963908        0.79946714341718
H            5.72806761055862        0.68735356012367        1.42634218380914
C            7.99788233538164       -1.58197588100376       -0.69450303640185
H            6.21256850214881       -2.59513958952867       -1.27578813340962
C            8.54837835657243       -0.54747972490119        0.04432271769883
H            8.14611967060658        1.07582125926916        1.38086258736473
H            8.63494017498018       -2.21948086046932       -1.28991966627615
H            9.61459551274232       -0.37899340889566        0.03162347706850
C           -4.05927777662502       -1.86982738291962       -0.89314982318699
C           -4.65482283075593       -1.17499630761008       -1.94913917568457
C           -4.89033757600914       -2.55285006227797       -0.00195746221493
C           -6.02760042296832       -1.15648234961628       -2.09902804934821
H           -4.03857453763978       -0.66564002311851       -2.67409695301675
C           -6.26280806657307       -2.53139656731422       -0.15520189728676
H           -4.46038328060976       -3.08023537157452        0.83528145147072
C           -6.83965308779998       -1.83141922032338       -1.20193340555904
H           -6.46813937184030       -0.61533032707739       -2.92352391199045
H           -6.88778012717072       -3.06102102805861        0.54907437905325
H           -7.91263613846648       -1.81380260593134       -1.31970169174555
