65
 energy: -110.131375600419 gnorm: 0.000892257336 xtb: 6.5.1 (b24c23e)
Si           0.03742481344830        0.92117333587280        0.93546954975080
O           -0.96201370481138        2.15565213855578        0.49553159964197
C           -2.32906389274478        2.21180148175690        0.19506985054558
C           -2.62403622222594        3.49284712486221       -0.55064128630376
H           -2.58472664693673        1.35661444843725       -0.44726207067743
C           -1.82786848132090        4.61543674817266       -0.37873959702515
C           -3.73350102674061        3.56598002639253       -1.38386835972768
C           -2.13562621913572        5.79530628370001       -1.03330287775891
H           -0.96231955026256        4.54930976452955        0.26150579679517
C           -4.04288400525953        4.74690677880524       -2.03359216450923
H           -4.35655916222503        2.69273954823938       -1.52155713305277
C           -3.24445075461044        5.86512396860541       -1.85876291628597
H           -1.50829087858839        6.66379558813397       -0.89578964237347
H           -4.90771965207321        4.79457394443752       -2.67958631530669
H           -3.48638430567573        6.78696861764531       -2.36723497846916
C           -3.20226182204383        2.16195374804800        1.47654147043581
C           -3.66250871564419        0.82755499769789        1.78227785622222
H           -4.07091551474747        2.81297350187678        1.34454120631452
H           -2.60387847572681        2.53966141607423        2.30777917095716
C           -4.06168631153934       -0.28317974265453        1.98545050221926
H           -4.40776083408761       -1.24954952305689        2.20497165590505
Cl           1.64652498771270        2.11938217567386        0.44502741120717
Cl          -0.57618006672227        0.58105191543094        2.86132915639607
O            1.24880164359284       -0.48395345180319        1.32709523097511
O           -0.58809301250270       -0.12449830125037       -0.28288955974072
C            1.71585654029688       -1.83857479607546       -0.51666982516015
C            0.37564999553645       -2.29716550576256       -0.54444783481982
C           -1.92455221936158       -1.95493456353106       -0.00048405539834
C            3.36276702708441       -0.42073276419198        0.44412687395072
C            4.35308346732868       -0.86261734868850       -0.40865477246347
C            2.71928654121370       -2.34914801215141       -1.37152596057288
C            3.99610579222488       -1.87488588867256       -1.33467007479836
C            0.04237666769033       -3.63861363286274       -0.84858036454054
C           -1.21687866148773       -4.12568760591464       -0.68146810401442
C           -2.25098836381143       -3.27286646367145       -0.19231925359328
H            2.43653182045541       -3.09820315779924       -2.09330448637147
H            4.74191115910559       -2.27639926677035       -2.00170341259170
H            0.83889066475642       -4.29252641428141       -1.16515977848927
H           -1.43987968564613       -5.15433356340385       -0.91283863517724
H           -2.63341412410240       -1.21401552214529        0.34282117308996
N            2.11910276070441       -0.89667385047293        0.40005198289126
N           -0.69101391047232       -1.48090293213831       -0.21963501765137
H            3.52553032331719        0.34374165157239        1.18588549926061
C           -3.60051195011608       -3.76503334324815        0.08044320057971
C           -4.71689326843220       -2.95444033366378       -0.13562528477478
C           -3.79964047926934       -5.05756750859929        0.56789835690495
C           -5.98849788077069       -3.42168023351511        0.13470865979923
H           -4.58859028084910       -1.96003412755652       -0.53609510084662
C           -5.07334918507106       -5.51992976134534        0.83831749568837
H           -2.94826752829480       -5.69250553504001        0.76308433212306
C           -6.17278283275037       -4.70508527805885        0.62363265923252
H           -6.84092829914910       -2.78151690023079       -0.03865173451474
H           -5.20936228417189       -6.51996880301386        1.22293152514871
H           -7.16734701221867       -5.06746688661696        0.83542254018732
C            5.70501140710405       -0.31015784843659       -0.34873807251557
C            6.25951781265973        0.10396155653101        0.86354934200463
C            6.47100609968277       -0.18461732953031       -1.50884508598595
C            7.53790142455908        0.62467513798644        0.91082592110322
H            5.69348233920489       -0.00460194624862        1.77594379218421
C            7.74772910695344        0.34048039068877       -1.45735715623014
H            6.05181671555600       -0.47201213748318       -2.46158204280764
C            8.28762977189411        0.74579736623986       -0.24800172399017
H            7.95400276657877        0.93659949317633        1.85732079878352
H            8.32362219897114        0.43818916615923       -2.36594588055668
H            9.28591637397342        1.15497896458282       -0.20903205119143
