65
 energy: -110.139114790983 gnorm: 0.000493063097 xtb: 6.5.1 (b24c23e)
Si           0.15273042424592        1.35349477026770       -0.23050683501404
O           -1.36191941329561        0.97075573579046        0.23653977508880
C           -2.26109688532850        1.61780179731323        1.10294254860940
C           -2.93947237334770        2.77923981784578        0.42372038341511
H           -1.71485729360135        1.97916552257120        1.98193160088537
C           -3.25126869202926        2.71663560849909       -0.92679021427671
C           -3.26487247689026        3.91904409777702        1.14560505010876
C           -3.87673957114169        3.78092819772130       -1.55050490737596
H           -2.98048036071657        1.83834391929050       -1.49374911140501
C           -3.89646014526003        4.98042957510519        0.52319087618341
H           -3.00809422186814        3.97744373429593        2.19314415761793
C           -4.20387355685032        4.91344867616434       -0.82540515079605
H           -4.10562428350774        3.72674983004105       -2.60469347714946
H           -4.14068616144826        5.86659435848726        1.09029479339943
H           -4.69028759285717        5.74607770888245       -1.31196545872587
C           -3.30198412360624        0.56898722129642        1.54526055603073
C           -2.65718501803600       -0.51402644355798        2.25460592905818
H           -3.81297693710113        0.17465198366785        0.66239096246529
H           -4.03765632742884        1.05236625008027        2.19226651763020
C           -2.06586141693027       -1.38588291475574        2.82220800839230
H           -1.57063062976107       -2.15287253238722        3.33845093349818
Cl           0.57719610961990        2.35256081261060       -1.96345378783942
Cl           0.43907017599807        3.02476342680589        1.06866646604126
O            1.39982426994539        0.60792501008600        0.68082970436657
O            0.11111907061894       -0.14814885544895       -1.28683013739012
C            1.86650958857340       -1.68346879996329        0.15942012311243
C            0.50966628815284       -2.05939317749491       -0.00245619714463
C           -1.64658579689550       -1.55223206376463       -0.85346126687807
C            3.54522430401078        0.01265423038724        0.18211063219347
C            4.57485230546122       -0.88832042985713        0.08009819442763
C            2.91256269222120       -2.63654519352225        0.16129702044207
C            4.22181040218041       -2.26998221620359        0.11864670369139
C           -0.02408066368781       -3.26900765576249        0.49958295065263
C           -1.34571383567262       -3.57231382216263        0.36934013327021
C           -2.21497991173458       -2.68535586965528       -0.31617020114871
H            2.63952776934415       -3.67943710306536        0.13857313460487
H            4.99809636326746       -3.01740498905858        0.11493944665893
H            0.63574980541547       -3.92404668378947        1.04559082809278
H           -1.73812220158173       -4.48868686986407        0.78011930740095
H           -2.20866275069773       -0.81452483581659       -1.40210406594387
N            2.26180365727565       -0.36422998258174        0.27134475411753
N           -0.35568112003405       -1.26443572536936       -0.71080559400141
H            3.69603240511446        1.08058174864879        0.21779963115635
C           -3.65153904440397       -2.92823448610180       -0.42641371867307
C           -4.36011152834839       -2.55542992136970       -1.56978364033848
C           -4.34853742272891       -3.51724326676458        0.62935632969237
C           -5.72249311335491       -2.76828599737816       -1.65308448199218
H           -3.83453102686070       -2.11960951323914       -2.40638163457341
C           -5.71171615070432       -3.72355589921015        0.54350762747620
H           -3.82212226166036       -3.78008103605019        1.53404622555450
C           -6.40413240680007       -3.35209017768759       -0.59742594545240
H           -6.25615752114106       -2.47952439735722       -2.54651917438349
H           -6.23847931792859       -4.17226946041624        1.37270698560130
H           -7.46918704743051       -3.51524998736105       -0.66347215943568
C            5.96630503520347       -0.45383204739668       -0.03814266152883
C            6.41432610035455        0.70887318227758        0.59126736079327
C            6.87877583090063       -1.20280426817911       -0.78307199244767
C            7.73238156083324        1.10628367381351        0.47774467277735
H            5.73241277817336        1.28976399503220        1.19321628090054
C            8.19517625874358       -0.79933131721169       -0.89671017012679
H            6.54683955327043       -2.09131112984646       -1.29938078253932
C            8.62822283359059        0.35519671074370       -0.26588958121333
H            8.06434808205113        2.00545980544119        0.97498117039596
H            8.88650467874377       -1.38677246424246       -1.48281498871217
H            9.65773525936078        0.66797513295031       -0.35323743929846
