65
 energy: -110.137198009706 gnorm: 0.000346262869 xtb: 6.5.1 (b24c23e)
Si          -0.56156178784438        0.71817964937299       -1.23847887054417
O           -1.61862863234749        1.00181043842594       -0.04769188542915
C           -2.72983099844923        1.86804929978557       -0.05018163442384
C           -2.29227133288519        3.30989878817845       -0.05472199645886
H           -3.33262059497364        1.67181640234761       -0.94628002781655
C           -1.16238948203421        3.69375664808280        0.65391912162333
C           -3.00623330076758        4.26074407441201       -0.76991510102928
C           -0.74674289604803        5.01271269042012        0.64211637224269
H           -0.60147897303859        2.94501650140249        1.19303805245706
C           -2.59406521130067        5.58137063004421       -0.77424146966599
H           -3.87710631118150        3.96059618929638       -1.33413075212009
C           -1.46364327680466        5.95923398873062       -0.06967568966409
H            0.14031897318929        5.30205022311735        1.18632443978048
H           -3.15099785175883        6.31536466431295       -1.33783172130365
H           -1.13756465238840        6.98893348658466       -0.08204582400847
C           -3.55888018756966        1.55513321298887        1.20818796547654
C           -4.10426046776004        0.21633730035981        1.14864516110222
H           -4.37056155855321        2.28254306668292        1.28808701085984
H           -2.91010309348705        1.64587627615575        2.08258547642901
C           -4.53603895765600       -0.89663027114498        1.06495441065372
H           -4.92843932187457       -1.86794579483700        1.00980845850788
Cl          -1.80889034448061        1.20443531667564       -2.92558362383359
Cl           0.89745793063483        2.07073883718020       -1.84068988513981
O            0.53585675715308        0.13202708019198        0.10356624089731
O           -0.57565263000215       -0.90245228362663       -1.82726164050012
C            1.61844345585301       -1.89118902100653       -0.35839820289893
C            0.37079450639322       -2.55757197327822       -0.41758122637870
C           -1.97327776475654       -2.42874323151868       -0.83607661461369
C            2.81584153824193        0.15609768699896       -0.19263417518189
C            4.04074896927905       -0.46291523116023       -0.32075054221570
C            2.86016778412271       -2.56179299590804       -0.42994324958880
C            4.03889750900725       -1.87941989527772       -0.42160573291517
C            0.15426063911773       -3.84490769249909        0.12623586964746
C           -1.09609770147860       -4.37168790754680        0.23312038981735
C           -2.22594896640997       -3.62769085668869       -0.21632403450310
H            2.84857808851215       -3.63434411826077       -0.53833624676177
H            4.97481342596940       -2.41091223925724       -0.48130596576921
H            1.00761711058507       -4.37892528821297        0.51238300700787
H           -1.24132761912563       -5.35086801523303        0.65974212235007
H           -2.74653151088902       -1.80002470821431       -1.24896667623467
N            1.66952346584259       -0.52592580103591       -0.18420143643341
N           -0.73275860888108       -1.95328635950866       -0.97971534416678
H            2.70456407791270        1.22467193320576       -0.10280020361785
C           -3.59214921529706       -4.11510375844339       -0.03315777306142
C           -4.58149279877791       -3.86171961614915       -0.98570728535331
C           -3.93719047461131       -4.83246972839420        1.11378727170282
C           -5.87435422821723       -4.30932786991812       -0.79200686774068
H           -4.33050889177381       -3.32656304243702       -1.88876330122444
C           -5.23283364212280       -5.27350536700452        1.30529476910214
H           -3.19203569174498       -5.01513220050631        1.87376226232285
C           -6.20635949949339       -5.01457026104351        0.35408981616404
H           -6.62800020251058       -4.10648916429658       -1.53831950087161
H           -5.48622239719345       -5.81679918909325        2.20374147587975
H           -7.21824156211898       -5.35885528330848        0.50552607568019
C            5.28274251290522        0.30837455883952       -0.33189280340307
C            5.40961206525308        1.47640416188798        0.42198941920542
C            6.37275613411542       -0.11375051119753       -1.09477704703688
C            6.58961729081042        2.19409030064211        0.41391392468866
H            4.58660603565196        1.80895682739299        1.03578133350937
C            7.54954050971642        0.60989362416333       -1.10343900982874
H            6.28697830322003       -0.99858240248539       -1.70778519751744
C            7.66449647750851        1.76483330393552       -0.34765621396331
H            6.67368855848409        3.09247389935475        1.00729272675381
H            8.38075368432271        0.27323849699860       -1.70540357145825
H            8.58570983497236        2.32765452022465       -0.35294382960610
