71
 energy: -116.473514566864 gnorm: 0.000924283541 xtb: 6.5.1 (b24c23e)
Si          -0.28505152062204        1.66150783286801        1.15728419442952
O            0.63057210127511        2.54100387908951        0.15272359789058
C            0.64337893863535        2.61351446521127       -1.25892185985154
C            1.58448217945965        1.57795906218565       -1.81640898058299
H           -0.36714263901567        2.43483749211443       -1.63666254548958
C            2.89501079590831        1.51527283956200       -1.35858512827067
C            1.16033086090436        0.67435635911203       -2.78026321310666
C            3.77629124480017        0.58600705772992       -1.88023432182049
H            3.21928927339584        2.19814775052069       -0.58761949282968
C            2.03874429947265       -0.26331417608470       -3.29464370041222
H            0.13841124421557        0.70849084895924       -3.12872326756332
C            3.34995514024462       -0.30224155960156       -2.85327435053367
H            4.79684165785727        0.55555903308550       -1.52817775603544
H            1.69969863991245       -0.95877462390272       -4.04921016689841
H            4.04005947639288       -1.02073197807786       -3.27082673954457
C            1.08349365755344        4.03501195694277       -1.64938522305143
C            0.06681281975299        4.99461016443643       -1.27485882229868
H            1.25667303871551        4.07281038074343       -2.72845357361734
H            2.01288611569803        4.27330042052215       -1.12826820409362
C           -0.80488594442525        5.74758249358077       -0.95183693497228
H           -1.55104031475187        6.42561107013173       -0.66274529541858
Cl           0.61813392445876        2.60034404095571        2.81507655447937
Cl          -2.22060770130855        2.09461284985590        1.71355329267136
O           -0.94074291991392        0.70392519020930       -0.34974255494263
O            0.21918935312945        0.12196928303443        1.75383686685941
C           -1.15294297683292       -1.57799415291003        0.08694415679758
C            0.27684756858063       -1.63790421238149        0.16505540903783
C            2.26278102083684       -0.66781828901672        1.08721075271403
C           -3.05380823522163       -0.18022850080256       -0.24997598433920
C           -3.93562525423580       -1.23128773978504       -0.11126521452653
C           -2.02131050896518       -2.67569993387629        0.28769188294591
C           -3.37895390043220       -2.49711834305730        0.18360218983432
C            1.09474188973923       -2.53074518360068       -0.56542713096331
C            2.45626987818989       -2.50461655881270       -0.40563049297258
C            3.08944913762023       -1.56534793305416        0.45505933931779
H           -4.03344365930704       -3.33866518432670        0.34795780924198
H            3.05893490954066       -3.19758491092160       -0.96944204807723
H            2.61493711412988        0.13432939697808        1.71578480114867
N           -1.73708422768284       -0.35416849475088       -0.15962566596150
N            0.93474359016628       -0.73178806188306        0.97343950221958
H           -3.37176026874189        0.83728236014288       -0.40762905526321
C            4.53727928736019       -1.52284452003582        0.64168526901334
C            5.08951844476465       -1.01784715117021        1.82260377792581
C            5.41009378668990       -1.98834502315982       -0.34529313854826
C            6.45803918813913       -0.97013393242637        2.00090241907693
H            4.44239882559736       -0.68077664723722        2.61754497435121
C            6.77827240904680       -1.93718919407290       -0.16381585114600
H            5.01671073519560       -2.36851641767079       -1.27510204346144
C            7.31076676993082       -1.42664866163461        1.00865067117645
H            6.86286110738183       -0.57752584305607        2.92186912080508
H            7.43507311097789       -2.29484821734128       -0.94355968773534
H            8.38037422444102       -1.38710768983657        1.14889035570867
C           -5.37736252024133       -1.02123294071111       -0.22962584707040
C           -5.88798877141786       -0.08249258257244       -1.12808306627533
C           -6.27457565063544       -1.75134206250181        0.55116524661194
C           -7.24987810243270        0.11729889605006       -1.24033849901051
H           -5.21264065207196        0.47747925971872       -1.75732687900298
C           -7.63589855518047       -1.54488525341742        0.43922812744570
H           -5.90201165100317       -2.46256710267881        1.27310417143359
C           -8.13020304229885       -0.61173482506262       -0.45724062837766
H           -7.62828957299472        0.84449067253370       -1.94360238349859
H           -8.31613975727387       -2.11165130395401        1.05796389618229
H           -9.19438107202290       -0.45202380612869       -0.54382233224055
C           -1.49384803502915       -4.00851305923942        0.72769147737743
H           -1.57784476915860       -4.74308813728836       -0.07146614633662
H           -0.45612208076107       -3.94160079573010        1.03942438937981
H           -2.08641788522638       -4.36844192901522        1.56681905692242
C            0.50487594892210       -3.43981475988391       -1.60213289811897
H            1.09735600235620       -3.37210185979161       -2.51234197908738
H            0.52864791404513       -4.47633929113310       -1.27083584209080
H           -0.51981243622804       -3.16653121267801       -1.83317235756036
