71
 energy: -116.472797759678 gnorm: 0.000778035453 xtb: 6.5.1 (b24c23e)
Si          -0.50181513139406        0.97029080325497        0.73920520518968
O            0.17217234994723        1.92867875668307       -0.37881112104643
C            0.29015175775067        3.33282565074637       -0.35808714454557
C           -1.05896412976035        3.99091374573313       -0.49228535000698
H            0.74834912159084        3.63684023965244        0.59197203187495
C           -2.03724689983879        3.41189937543119       -1.28856861659971
C           -1.33519829965244        5.17424741952466        0.17757017586048
C           -3.28095050420252        4.00471940356533       -1.40691249276046
H           -1.82035513933388        2.48226057778692       -1.79289131898862
C           -2.57698639944080        5.77105849623386        0.05119534394189
H           -0.57925800915540        5.61924191936081        0.80815290910775
C           -3.55197759215022        5.18698433998755       -0.73951902612190
H           -4.04156854867497        3.54199003498349       -2.01858278536483
H           -2.78739623829498        6.68917726102343        0.57976725318270
H           -4.52428354525339        5.64888301920234       -0.82922145295837
C            1.20362091598476        3.73856185037418       -1.52841426586259
C            2.56598329448488        3.30566065485281       -1.30647060984042
H            1.17758562338624        4.82595722477684       -1.63617415160900
H            0.81711054723324        3.28003684137777       -2.44166564716834
C            3.68666789903453        2.94421850818714       -1.09245594228094
H            4.67375652500174        2.63545288286536       -0.91880482485219
Cl          -2.51250695527112        0.95117135750911        1.25311024723399
Cl          -0.00083054477545        2.13681053379392        2.48909724290987
O           -0.84815284576788       -0.15433228886895       -0.67558359576560
O            0.55509915373021       -0.25143632891307        1.34963231305274
C           -0.23664840980762       -2.35896140036890       -0.19040326728910
C            1.12489300465064       -1.91371518919170       -0.23498815724480
C            2.66204733494609       -0.20802426800193        0.43924525542343
C           -2.52044000467206       -1.70804478251689       -0.39487475507060
C           -2.97461697239820       -2.98989829853522       -0.16800782477104
C           -0.65734284345453       -3.67671554563098        0.09851898613476
C           -1.99675910918687       -3.97751002473410        0.10078624681286
C            2.13801454137540       -2.46946224443468       -1.04938945909343
C            3.38650793559615       -1.89957606231985       -1.07068011929768
C            3.68310088290124       -0.73731848566310       -0.31033917196258
H           -2.30873072523701       -4.98441755657559        0.32884386132940
H            4.15018825971751       -2.32463218686131       -1.70249266801821
H            2.75100962826702        0.70258843774924        1.00949031721655
N           -1.22104729873069       -1.41736865154559       -0.40922187082278
N            1.46473358438667       -0.79453518807550        0.49724635395994
H           -3.17794064996002       -0.86726157433640       -0.54155964089647
C            4.99923035423876       -0.10277496099519       -0.34326059591768
C            5.52153860247070        0.50632302666218        0.80009015070857
C            5.75625631400077       -0.08196557377997       -1.51561958086804
C            6.75907707907163        1.11957207864407        0.76761770657933
H            4.95853111343531        0.48420684213177        1.72060460589403
C            6.99143133506004        0.53727834425258       -1.54472828097907
H            5.35824757382782       -0.52155118072312       -2.41781100696055
C            7.49870386847970        1.13962060968059       -0.40458567323075
H            7.14936042047121        1.58588533976682        1.66018001146655
H            7.55913096668291        0.55664127949480       -2.46339446045185
H            8.46315526884551        1.62419221173484       -0.42965312366884
C           -4.40461505886026       -3.29281904066228       -0.16958387171513
C           -5.27681609392239       -2.61149677178526       -1.02088483469109
C           -4.93100670372700       -4.26856524095275        0.67851866153703
C           -6.62735235793583       -2.89963825885471       -1.02341983750726
H           -4.88808626147458       -1.86732738709896       -1.69921070350531
C           -6.28315294282589       -4.55121449950182        0.67517133595464
H           -4.28190250641421       -4.78780269270778        1.36750648105403
C           -7.13726719599358       -3.87049822747584       -0.17651175702560
H           -7.28748417290322       -2.36587555759396       -1.69107468297305
H           -6.67423942524813       -5.30395665952321        1.34391942964335
H           -8.19353849073105       -4.09352909248104       -0.17884036045114
C            0.32879214804840       -4.72703915397167        0.51398574085940
H            0.45044241643030       -5.47662444264020       -0.26596386764112
H            1.29676212629826       -4.29212839384294        0.74222005212854
H           -0.04173185221887       -5.23612135676820        1.40170299536221
C            1.84263111308132       -3.60697168548494       -1.98042352268428
H            2.30870322389919       -3.41470136407707       -2.94452441501471
H            2.25550502534100       -4.53820851050802       -1.59669024745139
H            0.77434654899547       -3.73015693902312       -2.12810181141982
