71
 energy: -116.472733565442 gnorm: 0.000610858091 xtb: 6.5.1 (b24c23e)
Si          -0.20941459280736        1.01167747135474       -1.17706277589623
O           -1.27593666780639        1.50820739937119       -0.06498476920741
C           -2.12704572376441        2.63162552553812       -0.11904906212703
C           -1.33293923265977        3.91139052412338       -0.15044476911859
H           -2.74118572285352        2.56767108799131       -1.02627194246893
C           -0.18763276834506        4.03468527099614        0.62401141655504
C           -1.72709831224311        4.96685048614110       -0.96013895131273
C            0.55960683612586        5.19758207987045        0.58388640456564
H            0.12421602313005        3.20249183964585        1.23747408301458
C           -0.98317108165735        6.13283823889647       -0.99336533868981
H           -2.60811933558937        4.86570996374891       -1.57675401924758
C            0.16157404927151        6.24963131823134       -0.22330857106927
H            1.45650201319643        5.28168731772624        1.18004414651669
H           -1.29103116809275        6.94711141723265       -1.63266660018910
H            0.74720416912110        7.15662293632093       -0.25862681719714
C           -3.03368163922258        2.58265135004011        1.12279958896325
C           -3.93528445839795        1.45279249272819        1.06205797366823
H           -3.60879987488622        3.51056222772270        1.17762542654870
H           -2.40227358233212        2.50071489350260        2.01047975101001
C           -4.67211070207524        0.51380938767892        0.97523081486128
H           -5.32238499843178       -0.30695510883460        0.91501505825363
Cl          -1.15796801213041        1.86661091386266       -2.92303673151124
Cl           1.59358374683399        1.94000318374365       -1.61683931618904
O            0.57757363495177        0.13274011004267        0.23299608127066
O           -0.52993034049772       -0.53616272546031       -1.86742233976363
C            1.17768402275513       -2.04873079964309       -0.37239601999018
C           -0.22210470072424       -2.35529721212172       -0.38959394435660
C           -2.39465840549467       -1.57794164641647       -1.02523815715429
C            2.81241506781814       -0.36894920471113        0.05525803198161
C            3.85929704852682       -1.23437509299280       -0.18105615622750
C            2.21689561319344       -2.94982769976187       -0.69702388952624
C            3.52485610383765       -2.54545407841537       -0.59521992378778
C           -0.83610136390527       -3.40454893628967        0.33209422825568
C           -2.20371861267834       -3.52208796830152        0.33399567322237
C           -3.03006705576264       -2.59108396973765       -0.35073956814519
H            4.31135510504015       -3.23830454677785       -0.84962945029516
H           -2.66253469938861       -4.32009616589435        0.89574938816746
H           -2.91418895710722       -0.78816346802175       -1.54336278487334
N            1.54328817537592       -0.76093524144802       -0.03727759500045
N           -1.06350659182499       -1.50144943750583       -1.07277712541422
H            2.95238611743040        0.67140383326399        0.29718025536912
C           -4.48876352799229       -2.67269771358310       -0.31508123492681
C           -5.25228500708281       -2.26533026431300       -1.41163355887563
C           -5.15226504851665       -3.14434781170855        0.81965962004563
C           -6.63174539339583       -2.32336367492457       -1.37008633499062
H           -4.75884787356869       -1.91808811467903       -2.30647904716557
C           -6.53283399789460       -3.19704113303747        0.85793315922727
H           -4.58415265881368       -3.43624118898789        1.69027789190813
C           -7.27882072905515       -2.78740443310007       -0.23550718068352
H           -7.20665861465348       -2.00503717856357       -2.22697988162930
H           -7.03039822665678       -3.55251538820866        1.74851289106902
H           -8.35714146416875       -2.82750664218872       -0.20291565393176
C            5.24591407990176       -0.79422416048160       -0.03784380066270
C            5.59895119803278        0.12826181527832        0.94898098197992
C            6.24708417073446       -1.28875337314149       -0.87490019145954
C            6.90992421925272        0.53711360697343        1.09455313278627
H            4.84259301630544        0.50741709785302        1.61936339992023
C            7.55658864005170       -0.87362561752459       -0.72868442073659
H            5.99335447456118       -1.97960515758747       -1.66485682266908
C            7.89494543690757        0.03795497512061        0.25768642006424
H            7.16697796541237        1.24695310908259        1.86693663447043
H            8.31788135019221       -1.26051001728833       -1.39013267045218
H            8.91936743885133        0.35866939820185        0.37251169443073
C            1.91146604762746       -4.30534868798677       -1.26081384744786
H            2.17364110879736       -5.09031006800599       -0.55369059501625
H            0.86201764648452       -4.39749757422497       -1.52224020470592
H            2.50751594760420       -4.46128965888773       -2.15822809233840
C           -0.02714213784443       -4.33025658555981        1.19016785779862
H           -0.54378326173899       -4.49407482497327        2.13339590680620
H            0.09055850535313       -5.29912721976817        0.70790437768745
H            0.95610556936839       -3.91975148122236        1.39755786601591
