71
 energy: -116.472566206266 gnorm: 0.000771432997 xtb: 6.5.1 (b24c23e)
Si          -0.10120003254094        1.03652502147904        1.53671649585562
O            0.47099181913605        2.27422450095056        0.65952798349288
C            0.19184602637946        2.62958989137207       -0.67855007489637
C           -1.28143218005457        2.88071934626977       -0.85973742811819
H            0.50304456609993        1.80616539221840       -1.33331386772226
C           -1.97736837003314        3.61153463529483        0.09382804429047
C           -1.96779301523728        2.34612536092403       -1.94049929116431
C           -3.34292133295244        3.79463919583583       -0.02498930170154
H           -1.44606321439802        4.01200087612682        0.94418112086168
C           -3.33384965553432        2.53155725484344       -2.06065118967891
H           -1.43098287069549        1.76938632730587       -2.68056986246612
C           -4.02444862754785        3.25279039023135       -1.10144690916660
H           -3.87698313730805        4.35366821821282        0.72857950540899
H           -3.86241889801215        2.10305954996315       -2.90057412015780
H           -5.09269995184855        3.38640505910904       -1.18956092188424
C            1.03094647625549        3.87711509365595       -1.00284627998231
C            2.43923062901085        3.54314851698417       -1.02589752372723
H            0.72490756338359        4.27300479861616       -1.97487993532716
H            0.84811963807250        4.63083206414621       -0.23419823395337
C            3.58866468146189        3.21095437046604       -1.04453410460250
H            4.60471988266185        2.95026069261767       -1.05538290205766
Cl          -2.01482483670792        0.76960946121493        2.26755181566350
Cl           0.65719626756127        1.88656449754811        3.30503401815699
O           -0.64282227248494        0.20970547939439       -0.09982581316717
O            0.90659232543007       -0.34711288594039        1.74441093633973
C           -0.16710795650749       -2.07354375436347       -0.08866069088820
C            1.21751688642147       -1.70591844541904       -0.17053425032431
C            2.87998009267606       -0.14983890096911        0.58352072140660
C           -2.40437874406278       -1.25145851411039       -0.05064929983371
C           -2.94214183003811       -2.52230696168116       -0.04754050751813
C           -0.67078051574303       -3.39090588142608       -0.00745410396361
C           -2.02820066623121       -3.60028607648200        0.00600930956295
C            2.11939602339184       -2.14455772002757       -1.16621894620721
C            3.37208904548036       -1.58790547403948       -1.24783284901739
C            3.78211314391078       -0.54677426520909       -0.37062570515652
H           -2.40142218642775       -4.61022743317640        0.07016349190396
H            4.04695699155892       -1.92122799166020       -2.01993309351548
H            3.05749329791858        0.65612898765629        1.27740674421147
N           -1.09033152925248       -1.04927431958196       -0.06750221560314
N            1.68727345898726       -0.73993902337013        0.70112625339182
H           -3.00132146042478       -0.35475130875702       -0.01738236947498
C            5.08120645631951        0.11092442924439       -0.49539733728976
C            5.74781376707737        0.59250562417449        0.63348132355940
C            5.67578071322898        0.28768866596098       -1.74627907302950
C            6.96596337382980        1.23244544984525        0.51191412093380
H            5.31555777632047        0.44815254709435        1.61177716753781
C            6.89284305377595        0.93181174674194       -1.86334360966915
H            5.16446498362997       -0.04979433308377       -2.63542442937265
C            7.54367618208754        1.40657589918677       -0.73599482760320
H            7.46851126365940        1.59812016786296        1.39501887378490
H            7.33314946186764        1.07096596652479       -2.83999031855885
H            8.49361943201908        1.91101343489005       -0.82951915663598
C           -4.38961670881315       -2.72033267973748       -0.06727179825394
C           -5.21915175147901       -1.82019589553476       -0.74011256834565
C           -4.97732795124497       -3.80889344706833        0.57931688006709
C           -6.58705128933370       -2.00656345643471       -0.76590964292964
H           -4.78510863553989       -0.98122215566112       -1.26296024143069
C           -6.34655877805866       -3.98959056264029        0.55335279053594
H           -4.36124541712934       -4.50204189232100        1.13200795866938
C           -7.15773751312374       -3.09185396831627       -0.12069143701373
H           -7.21321113609720       -1.30270432197194       -1.29417940272990
H           -6.78479139850643       -4.83362362985091        1.06552670523558
H           -8.22749990712903       -3.23552921375140       -0.14123537610469
C            0.25482521888138       -4.55616340653347        0.17494480704030
H            0.27032068470008       -5.18577617203378       -0.71302039102879
H            1.26516635452603       -4.22603033005260        0.39536172574173
H           -0.09853719064845       -5.16762653221356        1.00324201574147
C            1.69459606756242       -3.12979946297336       -2.21351497627082
H            2.10970574683061       -2.83967905774193       -3.17627230914995
H            2.07030328582316       -4.12459652019037       -1.98046600159317
H            0.61309632322166       -3.17595791960065       -2.29817112113079
