71
 energy: -116.474739731484 gnorm: 0.000741131454 xtb: 6.5.1 (b24c23e)
Si          -0.40903312261357        1.40984976076058        0.73414597193597
O            0.72104617112496        1.81922514576130       -0.34538939891015
C            1.74477937291788        2.78453874827507       -0.30125346146910
C            3.05793836876269        2.11946265986916       -0.62909809473622
H            1.78822603474906        3.22427346118749        0.70249510358889
C            3.12034882891558        1.16550366544378       -1.63692231681810
C            4.21422233752227        2.45664923471437        0.06106998888645
C            4.32621295277589        0.57153673390326       -1.96174788166644
H            2.21286953356102        0.89075757820745       -2.15368649397108
C            5.41995943617361        1.86065397407004       -0.26528268208228
H            4.16486123542366        3.18676390160860        0.85596552054129
C            5.47970691180427        0.92357313535854       -1.28202207477372
H            4.36917590346499       -0.16431154859716       -2.75127994311500
H            6.31570807015163        2.12844980510799        0.27561354026012
H            6.42175420271515        0.46283699490396       -1.53926498076371
C            1.42986372874053        3.89499865727866       -1.32162417153668
C            0.21130657892721        4.58140349918442       -0.94987856680560
H            2.26531496478854        4.59920533104818       -1.35002554253518
H            1.30912928655474        3.44179037342096       -2.30881990616186
C           -0.80766137978732        5.10203531671005       -0.60126455619098
H           -1.70077920381333        5.56366202410204       -0.30312746133798
Cl           0.42489955553726        2.36996851669690        2.48297802516535
Cl          -2.23098758256956        2.34262818179489        1.01409431133955
O           -1.11529387522906        0.43561092529299       -0.66244058496830
O           -0.08750943390146       -0.10332400020022        1.51195724591885
C           -1.62858969556722       -1.74814765197245        0.00047855424593
C           -0.21470455069319       -1.97306962447376        0.07595302721863
C            1.87666554529365       -1.03380599335216        0.76638816014435
C           -3.33100023043824       -0.15337786946239       -0.48825388084883
C           -4.34091193773459       -1.05780651820399       -0.23732371110920
C           -2.62981614472778       -2.69187721121965        0.32040674578323
C           -3.95330695832765       -2.34750092827877        0.19642260992069
C            0.49560470565740       -2.99260649528037       -0.59668587348815
C            1.86724009015544       -3.01656138462450       -0.54567818933387
C            2.60732273231844       -2.01377600854705        0.13906579332576
H           -4.71127796552860       -3.07177194429928        0.44998055895930
H            2.39560869705778       -3.79827497126713       -1.06729221288291
H            2.32000739873765       -0.19849451278683        1.28366217508988
N           -2.04713953341530       -0.48737303459929       -0.37464110931946
N            0.54297667103937       -1.05215653115640        0.77022137275384
H           -3.51301036060175        0.87376573452375       -0.75756071774755
C            4.06784953268527       -1.99752970353489        0.15698730614428
C            4.76358702608979       -1.43991579294176        1.23212633929815
C            4.80560615601391       -2.54079510017339       -0.89686067560126
C            6.14387430162311       -1.42710199832345        1.24973063055065
H            4.21951391966390       -1.03422971856261        2.07095682525195
C            6.18640279389658       -2.52680908863098       -0.87512901121820
H            4.29513957447814       -2.95423273284017       -1.75358980544475
C            6.86302077436505       -1.97155530483006        0.19815851260416
H            6.66345838129248       -0.99445540038741        2.09178377778771
H            6.73903781293188       -2.94784530953826       -1.70263646905469
H            7.94268857255861       -1.96282790014098        0.21511049935146
C           -5.74434926384852       -0.67427187117582       -0.38065263543626
C           -6.13815267512150        0.22538274701271       -1.37299145650743
C           -6.72013246645027       -1.19661305838022        0.46952944244231
C           -7.46418132836213        0.58587498187465       -1.51028312491688
H           -5.40159083064285        0.62596185289025       -2.05278884789143
C           -8.04484631575439       -0.82983679057699        0.33135879451279
H           -6.43479648405517       -1.87012877668785        1.26372442206541
C           -8.42359332848134        0.06025419863181       -0.65991938385902
H           -7.75286564535591        1.27956071715276       -2.28610943172224
H           -8.78594134816730       -1.23715151226088        1.00342496978980
H           -9.45954903042031        0.34431175819397       -0.76781453643034
C           -2.27195172783178       -4.02729954685434        0.90064406251899
H           -2.45515757017109       -4.82508852636514        0.18296793230018
H           -1.23129545474453       -4.05792711200688        1.20779196007069
H           -2.89714892006866       -4.22006323782054        1.77036145949243
C           -0.21814810615570       -3.98880458474003       -1.46043045577410
H            0.34483139806297       -4.14293857972971       -2.37851692052464
H           -0.29500087069352       -4.95115748618256       -0.95722037755181
H           -1.21576621726163       -3.64540225397563       -1.71620069475021
