71
 energy: -116.465220956666 gnorm: 0.000354547170 xtb: 6.5.1 (b24c23e)
Si          -0.11422913848043        1.03904573199769        0.56874856758118
O           -1.23984471750901        2.11899065674586        0.04507390178401
C           -1.35947074859974        3.50126172517020        0.23090179771349
C           -2.56074409234752        3.99607684283774       -0.53585694828564
H           -0.44671923467170        3.99046896834717       -0.14110698491155
C           -3.71515085952058        3.22678703080459       -0.58726689097002
C           -2.54348067379411        5.23809015326371       -1.15523173057951
C           -4.83431271465506        3.68955170135369       -1.25524280387278
H           -3.72035466505737        2.26140090633211       -0.10485384439298
C           -3.66579058279413        5.70364268902171       -1.81748878459778
H           -1.64671143504687        5.84043874914981       -1.11859391012184
C           -4.81305234146079        4.93024628242578       -1.86955003632943
H           -5.72799424831139        3.08331790238500       -1.29285326684850
H           -3.64392574069554        6.67161046195599       -2.29685387677348
H           -5.68787321283590        5.29379004400433       -2.38874111750776
C           -1.54045459832380        3.86504734201450        1.72249355731948
C           -0.30157443966387        3.74054650709911        2.45601664728575
H           -1.90149089079777        4.89500225349782        1.79007223371886
H           -2.28839059712202        3.19385811710836        2.15161931253596
C            0.74530324241451        3.63328286218126        3.02573569209377
H            1.65388130774526        3.53824535992144        3.54042852426529
Cl          -1.15079890557033        0.49419051055107        2.28988335502827
Cl           1.54646079404140        2.18712535356610        0.00556577789279
O           -0.44008876579399       -0.01600439871073       -0.73865684816069
O            1.06745633218954       -0.26365606101719        1.23786949478586
C            0.33152173567433       -2.23313440187008       -0.43221117857868
C            1.67976702333296       -1.74111279862120       -0.46325607704234
C            3.25351574186952       -0.25727837504772        0.53434073390806
C           -1.98731293476752       -1.64934854571838       -0.28089230517000
C           -2.37688109346844       -2.95320974041524       -0.10908360292592
C           -0.02635975796025       -3.58705945364540       -0.24621247973582
C           -1.34762749547330       -3.93314538262509       -0.10369498666794
C            2.68940511545534       -2.18822915439153       -1.34423724514355
C            3.96127901177720       -1.68111021780760       -1.23578350154270
C            4.28602270935175       -0.71239015257955       -0.25806724838336
H           -1.60746100935555       -4.96786073537676        0.05242119388128
H            4.72404803552964       -2.02298352651720       -1.91760179281036
H            3.37149753798606        0.53032852772324        1.25984641766664
N           -0.70686030499441       -1.32255273683712       -0.47770804513849
N            2.02123457783729       -0.74741366159960        0.42913326841621
H           -2.66600654005432       -0.81258261168825       -0.25843945135059
C            5.63954565245687       -0.18266103607831       -0.10355831335506
C            6.12334461340383        0.17011764715430        1.15773129490499
C            6.47826616422923       -0.02062141504470       -1.20702824252225
C            7.40320716104928        0.66654508950416        1.30791415113248
H            5.49813074189725        0.03088461391699        2.02680242034869
C            7.75639323052439        0.48047817837999       -1.05288470975657
H            6.11571832820305       -0.25987079107391       -2.19545061664775
C            8.22567812594782        0.82434893528002        0.20409218114674
H            7.76380815421254        0.92976563646874        2.29144008300191
H            8.38971704600559        0.60754453446362       -1.91868488698531
H            9.22548349072193        1.21403391702255        0.32291302612867
C           -3.78159353762125       -3.30398083469229        0.09432376653672
C           -4.79456769470167       -2.59456387873910       -0.55338181247934
C           -4.14009865546970       -4.35575743002374        0.93854513444478
C           -6.12078533299022       -2.93052431028625       -0.36402960604449
H           -4.53673263660131       -1.79116966955679       -1.22700414267379
C           -5.46809039885628       -4.68537125805589        1.12859605084670
H           -3.37455484317274       -4.89801875169764        1.47276723112215
C           -6.46394948116453       -3.97718256644082        0.47655434078863
H           -6.89252597132127       -2.37569970042598       -0.87703357983369
H           -5.72863984972360       -5.49710881660738        1.79186251824674
H           -7.50113693087818       -4.23824404886009        0.62358459468619
C            1.01986211929764       -4.64891448420104       -0.08554818058398
H            1.11167198321416       -5.23943241565276       -0.99547419854798
H            1.98773715051688       -4.21956167938197        0.15349428347043
H            0.72960958503199       -5.32423704552824        0.71631507933690
C            2.36861705719243       -3.12796304694658       -2.46784989618952
H            2.78100416699448       -2.73265498402741       -3.39440226606286
H            2.81960227386013       -4.10429807239210       -2.29937127460125
H            1.29649086166801       -3.24805204147383       -2.58864194788903
