71
 energy: -116.388185994317 gnorm: 0.000888138560 xtb: 6.5.1 (b24c23e)
Si           0.51608399508129        1.82587856774034       -0.33586096480175
O           -1.02240080827614        1.35217121499094        0.54186752070681
C           -2.24413988074752        1.59284979991461        0.27241673937785
C           -3.30654092780434        1.11373231485965        1.07676343170333
H           -2.47884921886612        2.21669506899832       -0.59078758706426
C           -3.05080980516899        0.34919954998399        2.23469533699731
C           -4.64516726558850        1.39122410816328        0.73519760121874
C           -4.08952312610407       -0.09962945064661        3.01490746101143
H           -2.02287310061066        0.14630978811498        2.49400050347217
C           -5.67355160151578        0.93304541283207        1.52501308060537
H           -4.85037054420544        1.97176930656979       -0.15195909949392
C           -5.40519389719217        0.18980113037936        2.66886663113891
H           -3.88481528517906       -0.67584291150075        3.90616448976490
H           -6.69663104718815        1.15315220420283        1.25756504804742
H           -6.21709776535837       -0.16100778017888        3.28788667998906
C           -1.59775893414213        5.05974312350505       -1.15849287634221
C           -0.94217425757518        3.98527782110455       -1.46984318999066
H           -2.66395651145189        5.05726690174788       -0.99343062964906
H           -1.09713167691106        6.00809898167738       -1.05704684177037
C           -0.27416273693703        2.90524597141106       -1.70807740931910
H           -0.10231140532612        2.58954934670471       -2.72706554982224
Cl           2.50307722140935        1.89613408536946       -1.30684875800009
Cl           0.87801665246126        3.29450634552291        1.12937373825772
O            1.17196785704073        0.55354005887624        0.85736180501638
O            0.20587477038970        0.25308681453657       -1.49163441365367
C            1.56127794185899       -1.52331185208119       -0.04522908739712
C            0.11023823587466       -1.64251731581079       -0.16948132290892
C           -1.83259972909123       -0.71937125152492       -1.16076605620903
C            3.33344313725133       -0.09169885821571        0.57663601101173
C            4.28711732309705       -1.01621442289218        0.18592971203792
C            2.47689179976873       -2.49108102184179       -0.47147252707994
C            3.82955739533309       -2.22729817804378       -0.35029791867867
C           -0.66740538056058       -2.61522041251493        0.45486406722367
C           -2.04005591556616       -2.61647968052125        0.25701475789413
C           -2.64950338355092       -1.66611950302524       -0.57594000865038
H            4.54075915883200       -2.96834606310202       -0.68092272900044
H           -2.64019414526316       -3.36580978331579        0.74692819908744
H           -2.19537532425351        0.06443972440436       -1.80493467603626
N            2.03504677200236       -0.35757954392581        0.46631922967424
N           -0.51153110084701       -0.69929420302278       -0.94088494975924
H            3.57330564276612        0.88430425890964        0.96476765112943
C           -4.09757077933643       -1.64133426537721       -0.79663204074927
C           -4.63084180792588       -1.19915775765675       -2.00740632426424
C           -4.97354590547503       -2.04807012904441        0.20884043512157
C           -5.99794764939948       -1.16110402267765       -2.20189978169157
H           -3.97122477695851       -0.90705393963797       -2.81047536967992
C           -6.34008059793172       -2.00415179131701        0.01232480512759
H           -4.58436067975162       -2.36583920189890        1.16342469651592
C           -6.85825195866618       -1.56070388198931       -1.19250213888837
H           -6.39502818212224       -0.82016049787478       -3.14648586047401
H           -7.00386788515986       -2.31355664910575        0.80564055563260
H           -7.92630922418355       -1.52732982284114       -1.34548357514803
C            5.71418723722792       -0.71355687117099        0.31787211234385
C            6.18600411457452        0.01822231839216        1.40747107742112
C            6.62489318699522       -1.14890355052987       -0.64399015823284
C            7.53266058328319        0.30079701739429        1.53158720785655
H            5.49667589132038        0.34910576912431        2.16929058982442
C            7.97000142544938       -0.85779276934728       -0.51928444874894
H            6.27231388257865       -1.68742816726573       -1.51072224503836
C            8.42914100875240       -0.13527883316616        0.56950708070396
H            7.88500559473158        0.86535689540733        2.38192590414814
H            8.66319345271916       -1.19173746135133       -1.27727711819098
H            9.48043462156705        0.09070412154115        0.66574932763166
C            2.02346525809537       -3.77053794962336       -1.10444819800415
H            2.12196582105626       -4.59805669846520       -0.40288266749480
H            0.98844623864382       -3.70868338171949       -1.42754544145047
H            2.64754201481010       -3.99322337636862       -1.96698750612293
C           -0.05958843431437       -3.62092033198164        1.38344412317208
H           -0.65453376327710       -3.68293247555752        2.29232155316546
H           -0.05723310568394       -4.60835240911073        0.92370769074019
H            0.95867329049738       -3.35419455513537        1.64962261503342
