71
 energy: -116.474011264006 gnorm: 0.000635713429 xtb: 6.5.1 (b24c23e)
Si           0.32574384771061        1.46519708551247       -1.22274104831081
O           -0.87487534944681        2.14040668907867       -0.37807192077143
C           -1.16282366541237        2.22302453098655        0.99922046050170
C           -2.56343798523853        1.72076189610928        1.24087991195407
H           -0.44334552419405        1.61926545193705        1.55854187421970
C           -3.56392287152353        1.97673435127017        0.31204073241290
C           -2.87271566413427        1.01975606990864        2.39831494452158
C           -4.85869789991578        1.55048462397080        0.54551047004960
H           -3.31250440948765        2.50659983888764       -0.59429120538109
C           -4.17041652528557        0.60191462937547        2.63447951042510
H           -2.09406528294352        0.80776536728366        3.11799316253229
C           -5.16674282445472        0.87223675415361        1.71221283760480
H           -5.63152353933660        1.75214685065213       -0.18106585710129
H           -4.40494920754720        0.06520743472614        3.54241236206515
H           -6.18023985863806        0.55111710528924        1.89949126634097
C           -1.03277473132836        3.69405613216897        1.43971338764726
C            0.33339170621332        4.14226654800305        1.27665421682707
H           -1.34077319580912        3.78482254698482        2.48465169649569
H           -1.69220913764719        4.30370878599884        0.81705359242311
C            1.47402222799034        4.46002038588321        1.10532187092289
H            2.46723854851435        4.76223957562398        0.95661833513635
Cl          -0.49003866566803        2.22000497970130       -3.01757640343808
Cl           2.21627825020200        2.18996060943115       -1.59163198261541
O            0.99415452598486        0.65303014453014        0.38003623505035
O            0.03697840505793       -0.15417361287826       -1.75303042290223
C            1.46342552520728       -1.60698503635094        0.04951890664733
C            0.04664093997924       -1.80293983590256       -0.05944237943043
C           -1.98607110506897       -0.92758301243574       -0.97969793310886
C            3.19321566019791       -0.00417312397177        0.39386633169331
C            4.18268569960890       -0.96276783413236        0.32451163350043
C            2.44549886448389       -2.61284214264559       -0.08444357639161
C            3.77275806554292       -2.28914817821296        0.05717543514300
C           -0.72368048228395       -2.69353406257810        0.72049040938601
C           -2.09158091364438       -2.69350084469485        0.60826547576707
C           -2.77235075410767       -1.78802574756056       -0.25279339530678
H            4.51688350410239       -3.06229270399043       -0.05213281929776
H           -2.66360641151984       -3.37709459187064        1.21411732870443
H           -2.37634193056675       -0.16675648775768       -1.63576613744412
N            1.90672046058688       -0.31801332786806        0.26259257902455
N           -0.65387480219777       -0.97482832170538       -0.91560667629743
H            3.39609121985014        1.04558680818266        0.52715893903722
C           -4.22887753633524       -1.74856171945054       -0.34758835733498
C           -4.85851078255206       -1.30634061369623       -1.51395882432539
C           -5.03103729151680       -2.15471313115927        0.72086536112390
C           -6.23563757494555       -1.26805420016987       -1.60310250060376
H           -4.26602280759183       -1.01178028766724       -2.36622537467867
C           -6.40838200052207       -2.11897448092627        0.62591427184577
H           -4.57535661335677       -2.47340018035699        1.64565780220616
C           -7.01881067777019       -1.67472126102377       -0.53494242027847
H           -6.70252626418095       -0.92439584437406       -2.51438503774720
H           -7.01042149877934       -2.43562702083599        1.46536713600738
H           -8.09567567062107       -1.64666953768422       -0.60769231127154
C            5.58963858318135       -0.60079835778936        0.48654623747382
C            5.96631964353465        0.41722885457381        1.36454911345320
C            6.58645627412619       -1.26324203851529       -0.23120479314855
C            7.29578197529181        0.75743741488913        1.51932921225238
H            5.21261078930436        0.92797396597647        1.94471820451987
C            7.91471000644476       -0.91674371672109       -0.07656544044889
H            6.31644938721195       -2.03340378340715       -0.93807083871707
C            8.27601238232111        0.09275956465891        0.80023136330454
H            7.57089920620140        1.54414730607267        2.20631486593096
H            8.67265380575382       -1.43398129106202       -0.64640039378576
H            9.31465973002182        0.36125594592813        0.92106068312968
C            2.06844390431434       -4.00642297572347       -0.48808189054036
H            2.18508743863216       -4.69851068632278        0.34415169335458
H            1.04388136106229       -4.04971121337425       -0.84447521688875
H            2.72890689704335       -4.34024949498261       -1.28604370281698
C           -0.07899953505230       -3.56836735954996        1.75366402189076
H           -0.68743206789828       -3.57400199893626        2.65550496438583
H           -0.00819651262118       -4.59518741651693        1.39912639291956
H            0.91626273546525       -3.21514977295414        2.00564663054808
