71
 energy: -116.470839369937 gnorm: 0.000836524490 xtb: 6.5.1 (b24c23e)
Si           0.28676196652612        1.78628649268152       -0.62697568046022
O           -1.32729870635229        1.81284576817976       -0.46953319263444
C           -2.37269768571889        2.16605331701449        0.40713170120488
C           -2.43891313812097        1.18922296309284        1.55778302475169
H           -3.28002276472886        2.05463331819093       -0.20677085425301
C           -1.33489486679704        0.98616639680366        2.37620002623816
C           -3.59998878893706        0.46491489393998        1.79497267678842
C           -1.38282585528670        0.05060493372749        3.39400761090375
H           -0.43237685110547        1.55236423623313        2.20997492505097
C           -3.65470505843438       -0.45077504112405        2.83095456368710
H           -4.46621249625874        0.61819384428145        1.16664877041292
C           -2.54235835326796       -0.66983313139322        3.62482967256186
H           -0.51336880295617       -0.10824571094637        4.01484487506386
H           -4.56945615778929       -0.99407121074542        3.01891554315172
H           -2.58253221053666       -1.39267694241611        4.42728386643638
C           -2.31511385262487        3.61842974946615        0.90895368178731
C           -2.27790998739273        4.53624155308738       -0.20910847738330
H           -3.20659713476471        3.80132362538601        1.51551240489724
H           -1.42607404460821        3.76757428009173        1.52280659292015
C           -2.23686523126408        5.24547579897760       -1.17152963405082
H           -2.17897467183823        5.89021472977953       -1.99643102174872
Cl           1.15173663752909        2.51982846886130       -2.32363868304544
Cl           0.85566068708211        3.44175438317669        0.60769045212773
O            1.15310010505618        0.81432544536904        0.51340351261715
O            0.08356005786098        0.22333791326958       -1.63080343805420
C            1.39783733711397       -1.48300543042783       -0.03006779605919
C           -0.02605828963950       -1.58685652373098       -0.15722606635583
C           -1.95484348905312       -0.76171162795894       -1.27739178187365
C            3.26537327321344        0.00490658378450        0.15863203154915
C            4.17747413463077       -1.00636828104650       -0.00786017484032
C            2.30408197649640       -2.55195222368311       -0.21959390911746
C            3.65584201186502       -2.31491300143042       -0.19679890272689
C           -0.85010983340939       -2.48534101465457        0.55688406152940
C           -2.19626278205501       -2.52792221639182        0.29533261694451
C           -2.78891645365566       -1.67787728846646       -0.66904459231666
H            4.33800630399899       -3.13503327985525       -0.35382657669842
H           -2.81363325582480       -3.21357832609556        0.85277503244515
H           -2.29969722787483       -0.00444466198933       -1.96186648683858
N            1.95012002617991       -0.23548274014566        0.18150934736352
N           -0.64991769606200       -0.72492257627489       -1.03147801293242
H            3.53820226765138        1.04136569949017        0.27854172690025
C           -4.21628924117972       -1.71442987598099       -0.97583600855021
C           -4.68762968680907       -1.33105112692131       -2.23450644928681
C           -5.14860406334293       -2.12759284158774       -0.02102319584248
C           -6.03847116289294       -1.35196732203670       -2.52056835174142
H           -3.98785989430895       -1.03697046587374       -3.00190147265021
C           -6.49895564704840       -2.14353578837334       -0.30984332827899
H           -4.81495859954135       -2.41172970296082        0.96460551568812
C           -6.95214026504594       -1.75508512243342       -1.55989680341027
H           -6.38221909062883       -1.05485366438782       -3.50037996520006
H           -7.20394604715890       -2.45806465474310        0.44593959549255
H           -8.00795006775131       -1.76807449685245       -1.78431900251766
C            5.61476549209334       -0.73701482538222       -0.00784608194316
C            6.15141434278067        0.25462920842260        0.81554001827204
C            6.48021471118980       -1.46727600331787       -0.82331405387847
C            7.50983125504959        0.50354573611694        0.82299586792960
H            5.50161515598749        0.81595549018967        1.46974340878159
C            7.83786018762667       -1.21158986740848       -0.81591897257667
H            6.08258317615654       -2.21904868702932       -1.48868022699742
C            8.35905796830831       -0.22806704828336        0.00848025514358
H            7.90978713081457        1.27042653186347        1.46963004495086
H            8.49321858485781       -1.78034202279590       -1.45912311798626
H            9.42060306181291       -0.03199498891918        0.01568898027661
C            1.81498711343937       -3.92914418128876       -0.55299118514442
H            1.88534852396139       -4.58325531108379        0.31441372960910
H            0.78537704761151       -3.91300551542533       -0.89634772865443
H            2.43784015355698       -4.35546698282168       -1.33633785072697
C           -0.29522909801047       -3.30610013927089        1.68179661521413
H           -0.92498247389998       -3.17335520967944        2.55973949773275
H           -0.29627839019690       -4.36548144441117        1.43139514049704
H            0.71596472372285       -3.00103384343193        1.93193868985439
