71
 energy: -116.474658733435 gnorm: 0.000552752841 xtb: 6.5.1 (b24c23e)
Si           0.44030916805899        1.46330722540972       -0.67129101522394
O           -0.72114350613986        1.84145968364352        0.38500396480575
C           -1.82486141851195        2.70983478857275        0.30643149874462
C           -3.05287281111358        1.97790425753364        0.78685359977774
H           -1.95950362792918        3.03750342698641       -0.73191304643041
C           -2.95535291204003        1.07982128721076        1.84186449318462
C           -4.28969921602804        2.20623551234464        0.19972211573970
C           -4.08291452396282        0.43444929612307        2.31498987403313
H           -1.98626551613050        0.89134961502234        2.27877947932259
C           -5.41726442247596        1.56071841493752        0.67600849541539
H           -4.36617216907774        2.89316364119364       -0.63085436593844
C           -5.31765142081662        0.68120990794519        1.73983050605769
H           -3.99971497289209       -0.25757629525171        3.14042592831186
H           -6.37679955577875        1.74399668090740        0.21575074029524
H           -6.19990805107635        0.18445772040945        2.11449275442778
C           -1.55985500054464        3.94600418650906        1.18776232577717
C           -0.45333453455080        4.71241388847936        0.65654243633045
H           -2.46282990353674        4.56122730118044        1.21812775992610
H           -1.32131431007322        3.60899159441671        2.19973494341331
C            0.47268462188583        5.30310775564608        0.18273356946629
H            1.27900369679927        5.83330820317571       -0.22766520254107
Cl          -0.38681822020629        2.40202249038657       -2.43564555020762
Cl           2.24258928292766        2.43603081550670       -0.90989778770914
O            1.13401047819007        0.50800222538657        0.74881539582346
O            0.18731864899081       -0.06635197727502       -1.45069113515513
C            1.63819167006569       -1.69548613729226        0.14856439642562
C            0.22446980149754       -1.90331690920393        0.02898042283681
C           -1.82043797229314       -0.96229340990431       -0.78640872321247
C            3.34785886530709       -0.09673179463027        0.60214706155527
C            4.35345648851121       -1.01683733979013        0.39548576286476
C            2.63557969691815       -2.66052908877406       -0.11392833094139
C            3.96001066547371       -2.32242222781034        0.01746320786841
C           -0.53099306933339       -2.89054408130510        0.70034194320972
C           -1.89882088108705       -2.90086375095758        0.58433023227959
C           -2.59474484537198       -1.91437491987088       -0.16749217846784
H            4.71498837273252       -3.06379042121327       -0.19149459256037
H           -2.45880284299488       -3.65974434407179        1.10633319496307
H           -2.22473660378314       -0.13803309821564       -1.35085884745773
N            2.06255401957171       -0.42688727143122        0.49111843105865
N           -0.48927792857795       -0.99483646516232       -0.72499685273367
H            3.53393834392231        0.93930541624555        0.83256212091491
C           -4.05176720880112       -1.88055209426537       -0.25911045580183
C           -4.68699513858908       -1.29937816704574       -1.35965175829427
C           -4.85020587461157       -2.42646665053604        0.74832088760428
C           -6.06423867008994       -1.26186610140748       -1.44345741814929
H           -4.09898243025271       -0.89354020684586       -2.16806228700237
C           -6.22777014550154       -2.39101169637118        0.65852282004077
H           -4.39179994889869       -2.85860829636988        1.62448450246273
C           -6.84306030254728       -1.80779574239009       -0.43624899427967
H           -6.53442417155635       -0.80884317422575       -2.30370709985999
H           -6.82625292380818       -2.81718028132474        1.45076022826094
H           -7.92016393583117       -1.77958464474098       -0.50477763536511
C            5.75887526873426       -0.63364846943328        0.51948252892943
C            6.15973358162234        0.31762004659381        1.45946939022060
C            6.72995139860577       -1.20485644350865       -0.30446975699271
C            7.48715380212440        0.68236842994806        1.56977248288569
H            5.42793545871479        0.75708566489239        2.12003749427022
C            8.05602282599658       -0.83423822737198       -0.19327951940918
H            6.43994440491895       -1.92050048687676       -1.05910146372817
C            8.44132855889820        0.10922458215185        0.74462494782609
H            7.78101888842925        1.41761105286196        2.30423925300597
H            8.79278074688994       -1.27995942816996       -0.84542728122847
H            9.47809162300964        0.39778404465219        0.83029023232542
C            2.27537435076975       -4.01576150746126       -0.64432356944009
H            2.40516426913738       -4.78024200004151        0.11972186203013
H            1.24954417990330       -4.03966760485660       -0.99871804646873
H            2.93598269706941       -4.26542716412991       -1.47219194724070
C            0.12782885124141       -3.86533377761343        1.62963971804369
H           -0.47788530717907       -3.97865889084051        2.52614307301925
H            0.21167010276800       -4.84601188020192        1.16444169025141
H            1.11815046430696       -3.52679268809237        1.91794509583991
