71
 energy: -116.474526473739 gnorm: 0.000440596014 xtb: 6.5.1 (b24c23e)
Si           0.16343766882815        1.46790731115427       -0.12157599128098
O           -1.41979596609925        1.19944270928379        0.13597276292179
C           -2.34411693220905        1.74463001109972        1.05064983054269
C           -3.30517788570478        2.64773704065660        0.32053519504586
H           -1.80073050868126        2.32139380001115        1.80667732087564
C           -4.01881529466235        2.17603671444991       -0.77376229620241
C           -3.46691396912996        3.96761884787414        0.71745216455430
C           -4.88445732614515        3.00970750904456       -1.45774532801604
H           -3.88883707458130        1.15330341681963       -1.09682240226364
C           -4.33796894918514        4.80010400266094        0.03655565871655
H           -2.89870544233320        4.34349631620905        1.55533652751952
C           -5.04847942504968        4.32306452189987       -1.05141869086652
H           -5.43121566254144        2.63456782268419       -2.31073660872261
H           -4.45619228464428        5.82611671288346        0.35208049424397
H           -5.72422444504909        4.97451817820455       -1.58590192943683
C           -3.08216423896422        0.58005409830583        1.73997332338460
C           -2.13429345299852       -0.29369171871694        2.39587615710055
H           -3.77911723937062        0.99318841790137        2.47323848159477
H           -3.64824936703175        0.00983140707565        0.99842017918890
C           -1.30232659721966       -0.99133352928418        2.89851136430503
H           -0.58718730480252       -1.59500655378705        3.37145376986070
Cl           0.91221950003483        2.50583797501092       -1.72048005805729
Cl           0.42384049100570        3.06680023607541        1.28329854220800
O            1.22116343015918        0.54138831632683        0.87818177319611
O            0.14034325344624        0.04077554474712       -1.28550973757642
C            1.87781615633964       -1.55701658930153       -0.02688387095511
C            0.49583403151528       -1.93657826899964       -0.09048130167408
C           -1.65796837698037       -1.32634564762456       -0.89663476776307
C            3.42037745064363        0.24397874616055        0.31266251732174
C            4.49941752889113       -0.51447618523252       -0.06587066652112
C            2.95930349155074       -2.36489174289232       -0.44552160480173
C            4.23468812014301       -1.85708563897879       -0.44829452257123
C           -0.07746595705346       -3.07163128446727        0.52618243769531
C           -1.42584390602869       -3.30148964558460        0.40749768995900
C           -2.25871802128241       -2.42844693530341       -0.33075412388734
H            5.04974765211049       -2.48060197215583       -0.77914761827380
H           -1.86296769604271       -4.15323233036597        0.90420636839698
H           -2.19468284631164       -0.56320095904736       -1.43518551938792
N            2.18620747760915       -0.26778041043938        0.36526331994054
N           -0.35603710213675       -1.09603547967786       -0.77055445440709
H            3.48911375497456        1.28550495138535        0.58394209047129
C           -3.70463317094670       -2.61722214024955       -0.42748722018479
C           -4.39875157133299       -2.25787461086136       -1.58449575313440
C           -4.42622442398983       -3.12800449273850        0.65275660910116
C           -5.76969121510288       -2.40943218482904       -1.65789659967147
H           -3.85442253726925       -1.87969215737463       -2.43728623404462
C           -5.79769598158282       -3.27419262538938        0.57574223574095
H           -3.91042002110719       -3.37660285102670        1.56804050025898
C           -6.47520007052815       -2.91793551228861       -0.57904031577983
H           -6.29190583997335       -2.13186472093853       -2.56163591090549
H           -6.34269011984706       -3.66317594233001        1.42321683118436
H           -7.54682549868007       -3.03399915657704       -0.63756151741189
C            5.84772174720913        0.05039076144055       -0.09874213144994
C            6.24294798774383        1.00236538357961        0.84291747001576
C            6.76846157655610       -0.35107522670793       -1.06750640611261
C            7.51810603303816        1.53203589169321        0.81523387421568
H            5.55284114152690        1.31062484319657        1.61358471554522
C            8.04161474449276        0.18458206852943       -1.09380283143845
H            6.47493158229739       -1.06440580138444       -1.82302918502616
C            8.42308885841515        1.12591072004897       -0.15214324618826
H            7.80946155521191        2.26420816436223        1.55360106642451
H            8.73945042290300       -0.13104150927913       -1.85544024259403
H            9.41914180948554        1.54167641851387       -0.17267368835537
C            2.72745845636665       -3.73987764084514       -0.99673418005486
H            3.01016117409994       -4.49944224656173       -0.26991866940031
H            1.68823387927403       -3.88588270954590       -1.27376115356867
H            3.34706963899576       -3.88454273935478       -1.87920026288794
C            0.74127210494526       -3.96003741907671        1.41411665671533
H            0.18097187472123       -4.18116740487552        2.32050611588694
H            0.95401730463958       -4.90925263310955        0.92534713297060
H            1.68012682342572       -3.48700624208539        1.68663286376946
