71
 energy: -116.475129536299 gnorm: 0.000326779463 xtb: 6.5.1 (b24c23e)
Si          -0.38364483001217       -1.78567310444583       -0.26895396269512
O            1.22819590543279       -1.72240574296208       -0.07934440030014
C            2.13848729369029       -2.32039116764117        0.81797437049909
C            2.70438467976401       -1.20013555225918        1.66476869267007
H            1.59013816527603       -3.02032149690593        1.46354756279660
C            4.04794428418869       -0.85695624057559        1.70085186747250
C            1.79908329700710       -0.44800579481832        2.40848515435423
C            4.47729079106179        0.20989666530860        2.47346903936179
H            4.77744103826551       -1.41600714563332        1.13621882797496
C            2.22524629068813        0.62732973067975        3.16331205442323
H            0.75337951113935       -0.71659497473825        2.38805233930618
C            3.56977588677852        0.95866026119397        3.20008864214140
H            5.52871028714760        0.45597223530203        2.50086649159115
H            1.50847202431797        1.20020700918241        3.73401760425356
H            3.90809559246581        1.79274303214301        3.79829465181666
C            3.17172824374265       -3.10690069972483        0.00169651241653
C            2.49159536742686       -4.11261587612607       -0.78980945822412
H            3.88035608412367       -3.58781521091205        0.68003609889282
H            3.70780390316940       -2.42673604863290       -0.66680442484136
C            1.87344212180584       -4.90370860915267       -1.43959710353832
H            1.34128730032289       -5.60714765012621       -2.00644694083426
Cl          -1.34551935208738       -2.69724208004064       -1.82060542471994
Cl          -0.78731194209667       -3.32232882141112        1.16879744795190
O           -1.25945755046012       -0.71987585446944        0.77288385290810
O           -0.19958736478792       -0.35891261552462       -1.43386747953412
C           -1.55180301787317        1.48986234472794       -0.04710718700268
C           -0.12857446972510        1.61078580287413       -0.17877014260485
C            1.82568756100543        0.68205847167088       -1.16914345547204
C           -3.38546453165097       -0.01937815290377        0.27683414309933
C           -4.31829255558222        0.93816784276994       -0.03117439043491
C           -2.48082079844088        2.50312032077336       -0.37531804888032
C           -3.82657393626401        2.23224178958330       -0.35169402614154
C            0.67700406789150        2.59913946995684        0.42999652117901
C            2.02813537263235        2.62022638029091        0.18906935660820
C            2.64554869021543        1.66430963387930       -0.65283009873980
H           -4.52582519007424        3.00974666015512       -0.61468058920972
H            2.63058031654669        3.37346270109072        0.67055059333104
H            2.18395138512977       -0.14747306134658       -1.75540687766504
N           -2.07831814007328        0.26224351185135        0.30852955361214
N            0.51738561004376        0.66404357443959       -0.94177068993951
H           -3.63355010270646       -1.04352971242382        0.50619617617547
C            4.08005128880525        1.66271685525552       -0.92522782634213
C            4.58343311099637        1.10894637677165       -2.10582295630916
C            4.98821108019747        2.20431175528868       -0.01265371625131
C            5.94131331295710        1.08770293797348       -2.35552841040326
H            3.90397812462361        0.71324247735572       -2.84541099858000
C            6.34576423106507        2.17854972553932       -0.26508425370602
H            4.63165959011323        2.62203022500928        0.91561580101700
C            6.83090357760240        1.61887403939325       -1.43548678075823
H            6.30923067507679        0.65746778484170       -3.27546894183766
H            7.03182460808187        2.59588695205408        0.45762509637482
H            7.89241035995266        1.59922274454158       -1.63104004019659
C           -5.74715727002183        0.62673099639359       -0.05286698670713
C           -6.29229291466929       -0.28096053580018        0.85679192003772
C           -6.59552093983177        1.23249807924510       -0.98052765663773
C           -7.64296411565765       -0.56921279998070        0.83872458737953
H           -5.65634915743436       -0.74430705166259        1.59581297139633
C           -7.94505920054015        0.93742588294961       -0.99802789499523
H           -6.18953589906261        1.91541941699502       -1.71178924541978
C           -8.47520687229696        0.03823844142111       -0.08762320171748
H           -8.05022286706529       -1.26967872865825        1.55261290288361
H           -8.58667853641361        1.40871583104923       -1.72802187652452
H           -9.53052758156537       -0.18883058616936       -0.10063610602044
C           -2.02156131434175        3.84603422153106       -0.85809660194979
H           -2.11618746886321        4.59079845076967       -0.06970120759660
H           -0.98877714750505        3.81606738608468       -1.19091971088368
H           -2.64723778330431        4.16600297586236       -1.68842583130612
C            0.09703854980223        3.55180057369486        1.43200490301134
H            0.73390323064645        3.57270936319883        2.31429120323304
H            0.05808840791792        4.56364231390896        1.03235225834668
H           -0.90230136871821        3.25017107004648        1.73030774640112
