71
 energy: -116.474450758987 gnorm: 0.000509537946 xtb: 6.5.1 (b24c23e)
Si          -0.00992698337381        1.44867605469780        0.28900422447297
O            1.53472199219020        1.08414755749313       -0.07295380663190
C            2.45589363931072        1.68407296992762       -0.94688397269304
C            3.19781216641515        2.81503942387338       -0.28083100045175
H            1.92208040065843        2.07264406902474       -1.82223196011288
C            3.33296735504058        2.86613868455316        1.09829613702654
C            3.76352097031464        3.81805195502227       -1.05744847836872
C            4.01781065054447        3.90972135162226        1.69564647028334
H            2.87911951584950        2.09705956528634        1.70485594259537
C            4.45430552104395        4.85634454340044       -0.46076468725470
H            3.64774581132947        3.78899329010914       -2.13137526529410
C            4.58229662053823        4.90485793640021        0.91761694293665
H            4.10627467200966        3.94656854472665        2.77147259831453
H            4.88579892537293        5.63544104756395       -1.07197434367238
H            5.11408923125274        5.72139821370216        1.38351938289649
C            3.43789778270908        0.58494592693958       -1.40365103425658
C            2.72881207594365       -0.44556788427727       -2.12966145930622
H            4.20037305017932        1.03425415930306       -2.04401018202106
H            3.92496502007464        0.14868061444343       -0.52705429139440
C            2.07938052269884       -1.26311832480702       -2.71405728065046
H            1.53114629415892       -1.98137896879239       -3.24615944327604
Cl          -0.62407293817045        2.50648674007957        1.93436970976411
Cl          -0.24404951689022        3.08346167930245       -1.08067587134320
O           -1.14659466480964        0.58283464372373       -0.67445342248705
O            0.00439867968481        0.01641717125762        1.44192360531975
C           -1.86980003782053       -1.48281378379671        0.25347212791123
C           -0.50821663903470       -1.93472325435899        0.26293773958724
C            1.70532670500629       -1.45926368348606        0.99735960907748
C           -3.34015705986232        0.38447450639701       -0.04794257970866
C           -4.44027093946612       -0.32401927515836        0.36464099300075
C           -2.97319426885443       -2.23893831881080        0.71104794300612
C           -4.22363445898096       -1.67410791994581        0.75105425699985
C           -0.02667948580540       -3.10463153719793       -0.36758297545573
C            1.30588349233264       -3.42340076512422       -0.28159778489889
C            2.21545202389667       -2.60518163362990        0.42899000726639
H           -5.05522236690079       -2.25802222548717        1.11179046515031
H            1.67124445469598       -4.30611266527924       -0.78244018274792
H            2.31113501657529       -0.73081826460087        1.50981136483427
N           -2.13119633505661       -0.18107129693478       -0.13143718946575
N            0.41686899774520       -1.14645478738261        0.90896284190978
H           -3.37064155517157        1.42645932530017       -0.32440774079630
C            3.64379933457538       -2.90378279796677        0.50148500034206
C            4.38658112931945       -2.58111288269710        1.63883760903667
C            4.30112859103831       -3.49721613639672       -0.57733210929599
C            5.74073844791278       -2.84806187579014        1.69459055938134
H            3.89286880486454       -2.13912770492524        2.49159902398931
C            5.65599583308015       -3.75903367865242       -0.51857043217670
H            3.75216756475592       -3.72018104536230       -1.47913413810102
C            6.38166872895271       -3.43835050623638        0.61720106424257
H            6.30035031214572       -2.59648177232579        2.58348340054646
H            6.15068450929344       -4.21173602429781       -1.36528145111084
H            7.44025695278007       -3.64530850295938        0.66204591661418
C           -5.76328036699241        0.29622549388407        0.42317374955869
C           -6.14549065367401        1.24375008920274       -0.52819908794624
C           -6.67314966121473       -0.04971763584144        1.42298068381939
C           -7.39868153926403        1.82232649607642       -0.48056256538706
H           -5.46336120648424        1.50927339816600       -1.32162667430293
C           -7.92370898047690        0.53561861331344        1.46973975126269
H           -6.38767393553323       -0.75915699744959        2.18530047126258
C           -8.29326230623598        1.47115291646548        0.51753471876612
H           -7.68097709318782        2.54963976613228       -1.22723213218378
H           -8.61350177180937        0.26285337647953        2.25491732915968
H           -9.27223096685808        1.92477100128278        0.55346416159996
C           -2.78689547691174       -3.62097103493358        1.26214276723150
H           -3.13345424470019       -4.36925028724151        0.55146756314637
H           -1.74623493355147       -3.81647999751408        1.50084893655149
H           -3.37907723388723       -3.73099985507993        2.16812738876026
C           -0.92540081773332       -3.93742265931734       -1.23206484113210
H           -0.41591358488686       -4.17121309700074       -2.16482696572923
H           -1.16501886989436       -4.88255830540206       -0.74792405095935
H           -1.84857790280196       -3.41372073869161       -1.46091205702724
