71
 energy: -116.464922580912 gnorm: 0.000847770874 xtb: 6.5.1 (b24c23e)
Si          -0.20287698243055        1.03863729129771        0.04742076758888
O           -0.78114274047432        2.54361309835497       -0.01479270790052
C           -1.69463298342752        3.28258354089472        0.75417008070700
C           -2.64329888603149        4.02666728125040       -0.14974778691592
H           -2.25775753337237        2.60894193151193        1.41005742634285
C           -2.25222238563333        4.40731773044389       -1.42580444852587
C           -3.91210399678429        4.36346909713819        0.30441582552152
C           -3.12276570612333        5.11018506033151       -2.24010744218047
H           -1.26858714957080        4.13470952388696       -1.77598249077005
C           -4.77790246507069        5.07305043026696       -0.50801518707751
H           -4.22095436518648        4.06276657057939        1.29569159179324
C           -4.38516139374062        5.44697805205936       -1.78250862631906
H           -2.81326411154277        5.39713004335829       -3.23450049768835
H           -5.76323733982844        5.33090476179311       -0.14759599669772
H           -5.06395299214501        5.99690551192597       -2.41802566855435
C           -0.89666863652600        4.27998398425130        1.62018638993604
C           -0.03521234245923        3.56915648862688        2.53896155692934
H           -1.59499397821279        4.91356928340415        2.17245974276618
H           -0.29028870196058        4.90469966911705        0.95882250891201
C            0.67474783712293        2.92583543869665        3.25580448945015
H            1.27982876713864        2.37684320628065        3.91334515524496
Cl          -1.62966952248286        0.33091181962965        1.55528236743306
Cl           1.29305903970146        1.72552347800321       -1.34505416052180
O           -0.63818107283618       -0.17065199274498       -1.09206014693838
O            0.94369258022702        0.12973833750807        0.96855687667102
C            0.25220339817243       -2.21237075259645       -0.31003175833129
C            1.58725916717697       -1.67694203208045       -0.39562499588691
C            3.13870373815777        0.00653311772084        0.29680582851338
C           -2.10325983143082       -1.84796293083361       -0.53008969095111
C           -2.41257564330236       -3.12238767670478       -0.12095396318096
C           -0.02438862532871       -3.52460308746364        0.13544366436113
C           -1.32386402562993       -3.96361713931856        0.21973837884329
C            2.62206905760475       -2.27969076130839       -1.14385879171133
C            3.88929679349397       -1.74889155054349       -1.11716824516703
C            4.18822117229582       -0.58963514481910       -0.36024802473355
H           -1.51977307175050       -4.96057387263014        0.58113414750338
H            4.66609026850827       -2.21152640946186       -1.70502894986579
H            3.22302572586654        0.94092619439796        0.82647120277930
N           -0.83916580063705       -1.43820500539410       -0.64907893460183
N            1.91893056251063       -0.53118229631236        0.29748935899851
H           -2.84528842940776       -1.10001336177357       -0.75591694498626
C            5.53588385073015       -0.02589950235055       -0.29895620108052
C            5.99926421378325        0.57031597889472        0.87503183451548
C            6.39021062392483       -0.08203319895291       -1.40034415311599
C            7.27782559950568        1.08799179332989        0.94502436622283
H            5.35890653020398        0.60516733079885        1.74366840061012
C            7.66682976898080        0.44142288105990       -1.32769261012605
H            6.04029939137704       -0.51000718745264       -2.32741080319326
C            8.11775804387094        1.02466946663189       -0.15504412344354
H            7.62365785567607        1.54036018432484        1.86284934481349
H            8.31386177097477        0.39707155085739       -2.19143644555022
H            9.11721168075982        1.42907430990801       -0.09869739534046
C           -3.80227407148752       -3.56202849261298       -0.00537825512455
C           -4.77022548198511       -3.10748621483192       -0.90261183201859
C           -4.19140756284892       -4.44209506632561        1.00511298189068
C           -6.08313487383893       -3.52166951934827       -0.79123473807335
H           -4.48520046374203       -2.44298484816785       -1.70442669823715
C           -5.50655189108127       -4.85063532913156        1.11532308805653
H           -3.46537935560446       -4.78246050913477        1.72787040964650
C           -6.45754272451064       -4.39458680177417        0.21751582002502
H           -6.81928479803336       -3.16367202404004       -1.49584019599042
H           -5.79300193162752       -5.52537165982854        1.90867922425226
H           -7.48462287325970       -4.71576680920254        0.30427390463815
C            1.07049269014502       -4.42280321012417        0.62943250153663
H            1.25962919657433       -5.22398863005649       -0.08282928135915
H            1.99354567478690       -3.87658014421423        0.79550451094482
H            0.76370244865352       -4.88259940491192        1.56660882595566
C            2.34082419115734       -3.43015322603106       -2.06406929198953
H            2.72412784626283       -3.19372794131675       -3.05500804954102
H            2.84784966669041       -4.33065951730873       -1.72224214719725
H            1.27731158929430       -3.62982718741944       -2.14459789253074
