71
 energy: -116.465201284087 gnorm: 0.000521512484 xtb: 6.5.1 (b24c23e)
Si          -0.14855394626646        1.00880302832813        0.45102960481518
O           -1.20688379437978        2.12120239444305       -0.14189623974764
C           -1.24865001781909        3.51529039756533       -0.01734635026596
C           -2.31291276163718        4.06149572715687       -0.93586235621224
H           -0.26809415649308        3.92865781901551       -0.29637267019539
C           -3.50827395587633        3.37586265066859       -1.10241464546866
C           -2.12561820456590        5.27045411641886       -1.59183967017955
C           -4.49976473070139        3.88826974311090       -1.91943187069265
H           -3.64468366236252        2.43439268138054       -0.59286255477917
C           -3.12028657875877        5.78579876415753       -2.40407992500453
H           -1.19574430230784        5.80705114937775       -1.46629531396962
C           -4.30888230772638        5.09538699235224       -2.57029506149006
H           -5.42614563910807        3.34677943928085       -2.04674935049010
H           -2.96580305741863        6.72708802572461       -2.91153381202945
H           -5.08376316057645        5.49728000576520       -3.20696716362339
C           -1.56570146523700        3.94196043932063        1.43442998873670
C           -0.41381967000431        3.78298354706959        2.29265109374342
H           -1.87955039812214        4.98933031009766        1.43349531856739
H           -2.38603943119303        3.32196407734143        1.80398407588147
C            0.56935835275570        3.64355848607119        2.96023968959058
H            1.41831604941823        3.52083227157202        3.56313191314478
Cl          -1.23288921510556        0.56044752012377        2.16166857957182
Cl           1.57779182154853        2.08560633811707       -0.03761375510839
O           -0.49703704484405       -0.06602611575442       -0.83602731590064
O            0.96737937858701       -0.34938135218173        1.16344158799371
C            0.17496707994090       -2.30897494352047       -0.48690044470362
C            1.54162540761168       -1.87122612489555       -0.51179032294935
C            3.15925153496815       -0.43491217455092        0.48319851753294
C           -2.11494238437672       -1.62002998342214       -0.34076327729169
C           -2.56092962191542       -2.90279099860225       -0.14914642489298
C           -0.24189940891797       -3.64335948437621       -0.28619657314686
C           -1.57712980109013       -3.92844852789414       -0.13733137894517
C            2.54029917557411       -2.36343826769540       -1.38072758297353
C            3.82822231177125       -1.89905478638129       -1.26984773926556
C            4.17946480614219       -0.93238152568107       -0.29978130544705
H           -1.88292842955140       -4.94872868686301        0.03026304818061
H            4.58312996719079       -2.27348965573452       -1.94325559353495
H            3.30255377381558        0.35389169268202        1.20284414233521
N           -0.82193961382939       -1.35375683337202       -0.54717160978879
N            1.91020782235325       -0.87987175089813        0.37294017938223
H           -2.75621049897561       -0.75413529323170       -0.32659527789844
C            5.54835286324932       -0.44313443891773       -0.14615551461160
C            6.04251514671164       -0.10042419793611        1.11371088463080
C            6.39004116286419       -0.30795411857296       -1.25092353294766
C            7.33621189663315        0.35967792769879        1.26145005352121
H            5.41364832063933       -0.21863499233962        1.98328049575253
C            7.68185208407683        0.15755242838148       -1.09931328740152
H            6.01939755054783       -0.53952812836525       -2.23823389995277
C            8.16175577582527        0.49112360862148        0.15646798083839
H            7.70502786604714        0.61537624911363        2.24390477238300
H            8.31750731906327        0.26501989387147       -1.96607467302963
H            9.17227070992470        0.85280950078919        0.27334956699073
C           -3.97882619055751       -3.18595122106694        0.06828924130725
C           -4.96225083985321       -2.44012946081830       -0.58397371937642
C           -4.37972984268857       -4.20617831707920        0.93179030716560
C           -6.30133086965228       -2.70908410284595       -0.37909899345495
H           -4.67163678573573       -1.66136745554332       -1.27297375235407
C           -5.72041216196948       -4.46879185740324        1.13729523154050
H           -3.63636199582010       -4.77601662535079        1.46867792015550
C           -6.68685042191519       -3.72404267681419        0.48177061503604
H           -7.04997437006203       -2.12654720743186       -0.89555890884719
H           -6.01390720497563       -5.25641448722473        1.81572951571521
H           -7.73407170308698       -3.93230733698499        0.64156636176081
C            0.75628962160448       -4.74935215503570       -0.11741451331598
H            0.81473471092249       -5.35503243319497       -1.02012910341283
H            1.74412847733069       -4.36143993185471        0.11000897595967
H            0.44128342373999       -5.40025558916661        0.69513352888869
C            2.19316394766928       -3.30384363584187       -2.49596844239947
H            2.62634947859844       -2.93491156851993       -3.42386543500085
H            2.60616907153199       -4.29426722873343       -2.31315719641317
H            1.11821973682078       -3.38553655352574       -2.62325263260428
