71
 energy: -116.473237410327 gnorm: 0.000352386288 xtb: 6.5.1 (b24c23e)
Si           0.33843986334007       -1.46994392288478        0.64604863963495
O           -1.28645024270865       -1.48196931638373        0.58718054100942
C           -2.20521297651054       -2.51809716552073        0.31404649306824
C           -3.08395590724150       -2.09852737954218       -0.83816504997139
H           -1.65020703487000       -3.42175529353987        0.03976324523755
C           -3.90425244756183       -0.98179270033521       -0.73942532013314
C           -3.05789026925084       -2.81432820497662       -2.02779049099068
C           -4.69170863825758       -0.59317330932108       -1.80812300520428
H           -3.92826610503815       -0.40573378423736        0.17317460231080
C           -3.84765793787434       -2.42679775748032       -3.09613970465284
H           -2.41044120176169       -3.67430906907613       -2.11463714940025
C           -4.66752098488371       -1.31623874477835       -2.98833668932424
H           -5.32738248983396        0.27531319503369       -1.71257486548815
H           -3.82067141198632       -2.99200269803555       -4.01611409463355
H           -5.28399637909120       -1.01393138983085       -3.82244925369077
C           -3.02262179846099       -2.80950461050656        1.58535972374558
C           -2.13930251321653       -3.21579533834075        2.65799977395835
H           -3.73986610469895       -3.60440962477529        1.36551421247311
H           -3.57250642393500       -1.91356452786705        1.88564506017893
C           -1.35558354391196       -3.52178378969069        3.50831293082700
H           -0.67365190125693       -3.79590072952871        4.25623220453851
Cl           1.52872689470636       -1.96458621169682        2.24023976294641
Cl           0.68557698225073       -3.31027061456647       -0.40697450081356
O            1.03714384928799       -0.64753931929723       -0.70505601172600
O            0.23878973575157        0.16854307247392        1.47875539686209
C            1.58699502360085        1.62364954114195       -0.30524709103859
C            0.19209255221741        1.88727501025396       -0.10023550857099
C           -1.75380945407501        1.24604439579911        1.11326443335676
C            3.25412169595402       -0.07908942874564       -0.54813961652202
C            4.28554787280818        0.82259465067431       -0.46959452907187
C            2.62023265100757        2.58154348864246       -0.19997631975648
C            3.93188972051028        2.18706386758808       -0.29575889412376
C           -0.58237360113334        2.83842191089080       -0.80240661959944
C           -1.91593883372143        2.97863768323990       -0.50855793933881
C           -2.54287098732858        2.18492100570853        0.48254623302069
H            4.71264727495139        2.92493803951530       -0.20269450905091
H           -2.50065948039491        3.69851632866546       -1.05902078194873
H           -2.12163579164461        0.54542594800009        1.84463695233088
N            1.97713400161124        0.31406434285901       -0.51029367955400
N           -0.46295217375624        1.11303966581404        0.83216848430477
H            3.39797878613916       -1.14422870794747       -0.63529398523686
C           -3.96773595995110        2.29241683478176        0.78697074979720
C           -4.44960410233399        2.01281828662997        2.06848543330429
C           -4.88592836523080        2.65141794269120       -0.20253031867674
C           -5.80072071190335        2.08289032431929        2.34530151095418
H           -3.75656610988337        1.75991914769046        2.85710785379854
C           -6.23675756303898        2.71745241099905        0.07849296600315
H           -4.54097401495401        2.84959949658324       -1.20622956984897
C           -6.70150020913891        2.43241212816630        1.35194471855308
H           -6.15453490756088        1.86569877776444        3.34240343714805
H           -6.93333249693320        2.98760496837887       -0.70194352897697
H           -7.75764530445417        2.48270361582324        1.56919189719098
C            5.67936979966902        0.38376581898886       -0.52931782906998
C            6.05281462837689       -0.68835146250918       -1.34156749295433
C            6.66407692409036        1.02655239874489        0.22179064204185
C            7.36972477922388       -1.10054398862301       -1.40042382457354
H            5.30909430696266       -1.18529321562530       -1.94586505000356
C            7.97929306888016        0.60758614960496        0.16346051687903
H            6.39194443657539        1.83902950038723        0.87880962643116
C            8.33849169258879       -0.45511540795991       -0.64897710909332
H            7.64323394753103       -1.92861088629605       -2.03733679615358
H            8.72809989504693        1.11007184041682        0.75801489476016
H            9.36709056334390       -0.77965762576738       -0.69507876389166
C            2.31545359705037        4.01223428854653        0.12868876726432
H            2.39899396835505        4.63816648320963       -0.75807154559682
H            1.31737704323290        4.11906028325026        0.54200731877263
H            3.03613686348147        4.37754825720685        0.85701812502618
C            0.00167850792447        3.61481930132905       -1.94415717105065
H           -0.68437905966320        3.58505711969609       -2.78847052550986
H            0.14170217328948        4.65971907573051       -1.67248949796347
H            0.95466334812920        3.19919662348165       -2.25640751801297
