65
 energy: -118.570174044355 gnorm: 0.000473653493 xtb: 6.5.1 (b24c23e)
Si           0.32103678172029        1.36884565544290        0.66655397904527
O           -0.35824382755454        2.71942261937610        0.03005372274189
C           -1.70971036521855        3.10876055490133        0.06009069585951
C           -2.49928764678908        2.40605567045250       -1.01590406253475
H           -2.13112685463356        2.86187460650963        1.04379819654635
C           -1.90235447425948        2.10171476087351       -2.23153452283960
C           -3.82385351907584        2.05070099370106       -0.80139247596251
C           -2.61092541917828        1.42622618038121       -3.20860679870333
H           -0.87086640543577        2.37557302114710       -2.39254132645501
C           -4.53395631557102        1.37898351405338       -1.78064211535634
H           -4.29180761599094        2.28207402161600        0.14437059826916
C           -3.92727308874998        1.05980699665172       -2.98380301047853
H           -2.13400921273013        1.18284967180371       -4.14744627570335
H           -5.56010662342259        1.09338374445278       -1.59957193641924
H           -4.47920970139093        0.52557746136662       -3.74395335389005
C           -1.77060230825251        4.63427604346221       -0.14695869360291
C           -1.18108849254103        5.32678648827652        0.97817759280568
H           -2.81461579054611        4.93662937785990       -0.26443998295485
H           -1.22132545738011        4.88212086052518       -1.05857051424280
C           -0.68566693578750        5.85912618313708        1.92807687476224
H           -0.25072184418815        6.33901625302642        2.75278671137477
Cl          -0.35789281136261        1.45391158450932        2.58767580523099
Cl           2.11133235290456        1.91769525731455       -0.18849561885613
O           -0.55924948877992        0.30023934478709       -0.34898170644077
O            1.19471264821185       -0.26438821587454        1.32442753730640
C            0.05955572897969       -2.00492636833862       -0.48392574629673
C            1.45620915902207       -1.77685710367273       -0.44367595030105
C            3.30839174125692       -0.67900773003003        0.55075876189266
C           -2.12688021694307       -1.30536069890212        0.16453758353312
C           -2.68473065478571       -2.54303002006140       -0.02936191302370
C           -0.50419721011723       -3.25874343246147       -0.80699152515252
C           -1.82415414397071       -3.52431844368501       -0.60588145227092
C            2.37153973973943       -2.45335290648721       -1.27819112814155
C            3.71038883103798       -2.20070121002925       -1.21941839645430
C            4.23056629706074       -1.27453782640483       -0.28739277969467
H            0.15601864147202       -4.03362433779398       -1.16001378345106
H           -2.22481228295100       -4.50083661833037       -0.82081197387506
H            1.97813708541096       -3.13440986631016       -2.01424974931985
H            4.38816680028662       -2.68718235315232       -1.90196802879811
N           -0.84442404648292       -1.01236060976202       -0.12933527515217
N            1.98934542945601       -0.90669105412612        0.48042547117440
C            5.65514228743312       -0.94284392503860       -0.22644950865241
C            6.62123878704555       -1.93380633380538       -0.39763313302838
C            6.06072922704017        0.37734767536046       -0.02875701589980
C            7.96444372309914       -1.61170768666614       -0.36264481897457
H            6.31695932960816       -2.96150438825174       -0.53272045303655
C            7.40606799714042        0.69153971848301       -0.00022901191588
H            5.31878621641524        1.15389587355729        0.07627834044406
C            8.36079911247166       -0.29900865839826       -0.16470302943634
H            8.70526242725044       -2.38752991741652       -0.48854656416074
H            7.71098457593578        1.71638312569402        0.14819147600150
H            9.41104057322345       -0.04965536791286       -0.13993868454752
C           -4.08049248988142       -2.83252039195244        0.30552207325213
C           -4.84305500616023       -3.64972160000482       -0.52977938984913
C           -4.66988936293171       -2.30762853313214        1.45579801385854
C           -6.16072148458464       -3.92953578442830       -0.22354806657720
H           -4.40791068254991       -4.04338103113362       -1.43627715354935
C           -5.98754150944321       -2.59411131941711        1.75774574376744
H           -4.09137971897183       -1.68923412759529        2.12426142446108
C           -6.73766271555810       -3.40416488614069        0.92118540916135
H           -6.74166418347165       -4.55773271279667       -0.88257318767503
H           -6.43042130996707       -2.18443568943544        2.65309660184138
H           -7.76731276477968       -3.62473942600284        1.15920444202497
F           -2.83349342596683       -0.27006699183567        0.60163209676928
F            3.68091691513844        0.08632930806202        1.56446496154475
