65
 energy: -118.574991734869 gnorm: 0.000328920403 xtb: 6.5.1 (b24c23e)
Si           0.15426991077853        1.35836491427971        0.00514719967264
O           -1.37088148101953        1.11597308706707        0.52142775545048
C           -2.20123743475344        1.99353152612375        1.24985581761753
C           -2.49796820440331        3.24502332282092        0.46630620937416
H           -1.69746217884436        2.25361720334430        2.18805483454100
C           -2.76338100651033        3.15692653062248       -0.89344251955799
C           -2.50953438462608        4.48516516901330        1.08728176717964
C           -3.02915849635142        4.29896742032225       -1.62660534272164
H           -2.73867976962724        2.19215114402351       -1.37859071989172
C           -2.78256848382444        5.62567324746506        0.35369502057256
H           -2.28648285188618        4.55671575946680        2.14143256093165
C           -3.04168077309796        5.53486754525996       -1.00340129557747
H           -3.22274088024853        4.22289684002234       -2.68629742036212
H           -2.78220933712419        6.58931484846113        0.84131785864647
H           -3.24586242446190        6.42763518142355       -1.57614039728886
C           -3.51001707522096        1.24247518736020        1.55398547402298
C           -3.24084060925626       -0.01925271484495        2.20758740694683
H           -4.03398921751701        1.06536760323253        0.61049036284861
H           -4.13796745829689        1.86969754241468        2.19103421350648
C           -2.96947286469657       -1.07344829489186        2.70511367629005
H           -2.75696912122958       -1.98887033049264        3.17046594494524
Cl           0.68596196528945        2.20194816181803       -1.77352359051452
Cl           0.63387633360428        3.01913073951940        1.23483317688314
O            1.30550789477960        0.46117161647062        0.92032953792774
O           -0.06743191227813       -0.19736663575253       -1.02774649232576
C            1.65269420556453       -1.82898331251113        0.34188445817214
C            0.27617189593462       -2.13532888516374        0.23208551101730
C           -1.87565388752081       -1.55679130594394       -0.58116728725824
C            3.39996746791240       -0.20969881871741        0.24597089902521
C            4.39178194160133       -1.14866022815420        0.09137628873798
C            2.65579930745830       -2.82372158548026        0.30237928456285
C            3.97395097939043       -2.50765563739035        0.18500088325602
C           -0.28176958143808       -3.34372803728343        0.70354460183102
C           -1.60116831097500       -3.63226813342934        0.52985890567977
C           -2.46204514638064       -2.72563781744240       -0.13666975906726
H            2.34333037946645       -3.85478227672304        0.29550100550841
H            4.71701484837648       -3.28366252606601        0.10682966523466
H            0.35840831618408       -4.01938499182390        1.24609316216850
H           -2.01630774506424       -4.54637608183183        0.92248518524355
N            2.10239785914243       -0.52162648934852        0.43125958968017
N           -0.57337182513902       -1.27861606085635       -0.43339649577857
C           -3.87300185683006       -3.04511997705531       -0.36460564731080
C           -4.24067221783195       -4.35381568215490       -0.68259108402977
C           -4.86764677605508       -2.07381488699533       -0.26470167736414
C           -5.56612186703575       -4.67743148539482       -0.89790810377797
H           -3.47995163325688       -5.11312632007654       -0.78917582542846
C           -6.19239584119688       -2.40446934971002       -0.47572965111204
H           -4.60271071386266       -1.06589862538205        0.00625946260217
C           -6.54725653291340       -3.70487864379416       -0.79407481679643
H           -5.83494354177223       -5.69224385903049       -1.15140561316541
H           -6.95264718870788       -1.64286067425130       -0.38860714564897
H           -7.58275326406151       -3.95995400112120       -0.96130886766715
C            5.79233575260976       -0.78335094852603       -0.12881644613349
C            6.81012763219583       -1.53009613247861        0.46658555642949
C            6.13583495488800        0.29900748138053       -0.93951056009060
C            8.13499854616328       -1.19921825848820        0.25910198939096
H            6.55963576989091       -2.35447638077593        1.11761231011848
C            7.46350655622300        0.62209745686856       -1.14522642801259
H            5.36450619480856        0.87814588975227       -1.42276579416521
C            8.46681718938607       -0.12338603750395       -0.54828016908143
H            8.91226813549694       -1.78073118354460        0.73247259383049
H            7.71575893646727        1.46041494450986       -1.77677426449406
H            9.50290071484764        0.13331564118479       -0.70943095183635
F            3.65937974295032        1.08765677000348        0.30315082395455
F           -2.55424653609072       -0.66129216380196       -1.28323062734197
