65
 energy: -118.572690491583 gnorm: 0.000325783125 xtb: 6.5.1 (b24c23e)
Si          -0.45496348005526        0.76145066094750        1.40571202522239
O           -0.49363949511457        2.13959954870641        0.57784450670582
C           -0.84167390126707        2.49758005395846       -0.73828173221717
C           -1.80984208382669        3.65481241676678       -0.70904363866881
H           -1.30083376032202        1.64265956382445       -1.24296328454957
C           -1.82953128263182        4.53619502686478        0.36242315183227
C           -2.67636729275127        3.85591183028244       -1.77597609663737
C           -2.70951220967258        5.60445245070558        0.36734772527962
H           -1.16439652335659        4.36740257562902        1.19519099510156
C           -3.55057999493744        4.92764254328115       -1.77168714863252
H           -2.66819954184385        3.16589092477264       -2.60832921980578
C           -3.56872480923234        5.80417658565358       -0.69936637428760
H           -2.72378423195092        6.28221344568170        1.20802924762914
H           -4.22342229579256        5.07572501971397       -2.60394721327952
H           -4.25553408973815        6.63782044222606       -0.69452513276970
C            0.44380016964692        2.90383295409251       -1.49082834876854
C            1.21885226356956        1.75043716660213       -1.88763440384221
H            1.03663186956482        3.53895798417130       -0.82749977423504
H            0.17111589986716        3.47617274090023       -2.38151754914981
C            1.83514110960821        0.77940530960846       -2.22060765031082
H            2.38133456088483       -0.05841618296599       -2.53845187535568
Cl          -2.12404066878309       -0.21462279735715        2.15395483658534
Cl           0.02166085825699        1.73398664009677        3.18494510042650
O           -0.67114313226422       -0.21860121181413       -0.25613124002186
O            0.96775054010790       -0.16216002334909        1.60482259444728
C            0.05950193625744       -2.42602630580602        0.01917749311004
C            1.40175261577268       -1.98926676194611        0.11375620802699
C            2.93143368927445       -0.18432411989178        0.40832979471050
C           -2.23006622876659       -1.89073372238484       -0.30163899636254
C           -2.64824909521179       -3.20387882246192       -0.22776892238743
C           -0.31952693752178       -3.78619092721986        0.04722925660212
C           -1.62529964591309       -4.16523229136282       -0.05145951483460
C            2.48442513773614       -2.74730352230012       -0.38671116141169
C            3.72813021993058       -2.21173198116366       -0.52672034122798
C            3.97393209653297       -0.84843713900425       -0.19064267336072
H            0.44889728808059       -4.52254867296913        0.21370492920455
H           -1.89861040776054       -5.20492849245690        0.02665674613290
H            2.28536461266511       -3.75078447814216       -0.72503888887379
H            4.53049590865792       -2.79199187441302       -0.95162711322989
N           -0.95043266811354       -1.51204668894170       -0.17690263176428
N            1.72894532099332       -0.74637558514797        0.63717024851421
C            5.25764823030505       -0.20074740222498       -0.46707907863138
C            6.45057958124186       -0.89956034748796       -0.28144117430138
C            5.30708554273958        1.11233889718704       -0.93551624102867
C            7.66337229781790       -0.29522322317242       -0.55033566537026
H            6.42611002678065       -1.90891531172317        0.10187365799131
C            6.52384917601252        1.70813468594077       -1.20730005992069
H            4.39028713930958        1.65608514223977       -1.10646411117893
C            7.70440028579381        1.00937919520571       -1.01473317771759
H            8.58085643952818       -0.84291066416032       -0.39376814540013
H            6.55027477893754        2.72340977218916       -1.57338292949422
H            8.65329652033650        1.47931943721243       -1.22491735832937
C           -4.06330146410591       -3.56853357070461       -0.31106502406142
C           -4.45794829250123       -4.72045390919750       -0.99137118685030
C           -5.03244933144908       -2.78057547008035        0.31076343980281
C           -5.79324453343056       -5.06913711445246       -1.05710818380442
H           -3.71769349763396       -5.32821765881635       -1.49096118275300
C           -6.36532889690220       -3.13861373253245        0.24387674397382
H           -4.73540968802694       -1.90400297669857        0.86548118754257
C           -6.75065699398699       -4.27979217128888       -0.44076704509482
H           -6.08906369314683       -5.95876547535989       -1.59337139890518
H           -7.10708175357916       -2.52460297651029        0.73184827941100
H           -7.79339348782638       -4.55474655432199       -0.49328114794324
F           -3.06072196834889       -0.90546394003046       -0.61473602519294
F            3.06068026156222        1.04411608542389        0.88835189362310
