65
 energy: -118.569684389935 gnorm: 0.000645676237 xtb: 6.5.1 (b24c23e)
Si          -0.22575992394539       -1.82623375622293       -0.62740938951099
O            1.34774050585297       -1.67583226913487       -0.26611014142165
C            2.30697731775178       -1.93705818100240        0.73462201335082
C            2.15532757370567       -0.92492199992904        1.84617757160062
H            3.27025172760051       -1.77170305654047        0.22838364272002
C            0.96043163753541       -0.82713322850632        2.54905320330031
C            3.18877299419737       -0.04503387394555        2.14116631456264
C            0.79589817496638        0.15333237251179        3.51097522652929
H            0.15526883487765       -1.51291017969516        2.33550693649839
C            3.02754027546166        0.92545871313189        3.11439083749319
H            4.12597643873770       -0.11799457341725        1.60744010761224
C            1.82686381065741        1.03348353919544        3.79415153462977
H           -0.14000672839695        0.22567033415264        4.04525843026792
H            3.84095882396719        1.60049791037876        3.33678940938289
H            1.69702565453165        1.79695340425153        4.54710960925865
C            2.29985596955509       -3.37874979624469        1.26530258658463
C            2.50519073174872       -4.31103824459966        0.17775530346478
H            1.34733578243144       -3.59858935628992        1.74805570510204
H            3.10706576099359       -3.47109008625716        1.99755329965878
C            2.67424318562416       -5.02989166870378       -0.76303896773364
H            2.80552032654466       -5.68759781827145       -1.56890167947786
Cl          -0.70509215846948       -2.59320820870872       -2.43479988227124
Cl          -0.82327907285047       -3.46129187268100        0.56422053042233
O           -1.33741399652303       -0.93703276085151        0.33581112026935
O           -0.01626251009048       -0.14977157259600       -1.59808923723747
C           -1.30895689013573        1.45528557331222        0.20293749235323
C            0.08273429095349        1.56985314603471       -0.01997428894103
C            2.00662779321901        0.85167449883165       -1.20304118115898
C           -3.30749197157466        0.18095919250786       -0.05495157845307
C           -4.13216817623336        1.26965554611404        0.09050744548283
C           -2.12776498060056        2.56934704362674        0.49250433041700
C           -3.48545672021266        2.49005007532980        0.44490865501174
C            0.89370328496767        2.53468102856144        0.61394585869259
C            2.22811697989102        2.62089269185389        0.35569631378978
C            2.84467376822793        1.75996618010478       -0.58400703389055
H           -1.64498480728295        3.51309157361546        0.68514247959322
H           -4.09086477930370        3.36353959350871        0.62074326705323
H            0.44136834123003        3.16680098454357        1.35931505479255
H            2.83846342680884        3.32995432801267        0.88985805454992
N           -1.96582840507389        0.24187156460370        0.06221231190997
N            0.69556303585279        0.75762762593948       -0.94705464411060
C            4.27952120588405        1.83179492344153       -0.86590996944465
C            4.93333369261728        3.06530766631657       -0.84396529557970
C            5.02625560647475        0.68406081855110       -1.13537234762647
C            6.29141566100617        3.14610975693103       -1.08221311958242
H            4.36752155252610        3.96768129487215       -0.66689172135208
C            6.38548172704653        0.77072209135731       -1.36845197151683
H            4.54709538277170       -0.28227579287900       -1.15162611832228
C            7.02407736231308        1.99939989893924       -1.34178232429204
H            6.78062988610993        4.10881392451103       -1.06917801533194
H            6.94918010947647       -0.12734593039352       -1.57121783554556
H            8.08584576563597        2.06381098710697       -1.52537904882319
C           -5.58402893091643        1.18299740318879       -0.07724673399596
C           -6.43004308642930        1.91577481172514        0.75626655015496
C           -6.14621348608511        0.38348179631019       -1.07270139606281
C           -7.80060556195438        1.84661119362051        0.59911594851871
H           -6.01193127353699        2.51878450459110        1.54839601839349
C           -7.51790665435866        0.32138266080553       -1.22620187348221
H           -5.50884570603707       -0.17735776573997       -1.73840549590443
C           -8.34969801430124        1.05091588224407       -0.39287102624322
H           -8.44388219441257        2.41289001051219        1.25623204316485
H           -7.93952320810859       -0.29909412481992       -2.00233102592308
H           -9.42105452116839        0.99887922177357       -0.51429952506157
F           -3.77915939138013       -1.04272573101487       -0.25010551252820
F            2.43330974962845        0.04749208152638       -2.16496382576413
