65
 energy: -118.574984877381 gnorm: 0.000454513309 xtb: 6.5.1 (b24c23e)
Si          -0.04571245808124        1.39265137255134       -0.24857447280494
O           -1.52111193706201        1.04210315355194        0.34393017453380
C           -2.39268568085942        1.87391576571450        1.07699960414400
C           -2.84475192773402        3.05475195467883        0.25898988566177
H           -1.87012222400328        2.22340442641415        1.97503259023668
C           -3.13672166620531        2.88811995279880       -1.08768438474881
C           -2.97719513566318        4.30806981558957        0.83838598873368
C           -3.54647141800359        3.96684060063761       -1.85005386328693
H           -3.02054984459686        1.91429920934498       -1.54029964060197
C           -3.39504355715441        5.38405606763635        0.07628262754489
H           -2.73566088227036        4.44186234312895        1.88245760389949
C           -3.67867396470040        5.21584420453306       -1.26853363850652
H           -3.75860007147339        3.83138366822306       -2.90026050430593
H           -3.48954388546169        6.35884248967057        0.53162822357622
H           -3.99560116606173        6.05935646020330       -1.86418209569585
C           -3.60824218377289        1.02117593760262        1.48394078239175
C           -3.18514292439703       -0.18189830828941        2.16604307797363
H           -4.16454216294157        0.75807990384700        0.57977415688816
H           -4.25571230905024        1.61471674357956        2.13356594985098
C           -2.78417889249177       -1.18401101094443        2.68294515878279
H           -2.45840360033521       -2.05613176396568        3.16575635144415
Cl           0.35745758735759        2.18785191364995       -2.08341098766754
Cl           0.32770906842776        3.15142462056380        0.87741775095644
O            1.20454583768458        0.63377970304692        0.66419562064927
O           -0.16754376542917       -0.22236289051883       -1.20514972896537
C            1.76213495429335       -1.62498784440246        0.13766984589708
C            0.41926768984713       -2.06817614429640        0.10267747874266
C           -1.81598840628552       -1.72264277159872       -0.61357176346539
C            3.32778545521272        0.15935654398062       -0.08398272343921
C            4.40327721095231       -0.67865959065670       -0.25910229395450
C            2.85959251013988       -2.51352807489090        0.08057437509268
C            4.13216011071989       -2.06900562863964       -0.10671473465202
C            0.00312878376298       -3.30646890447260        0.63842740871836
C           -1.29090763430154       -3.72085459493531        0.54748182493669
C           -2.26761857119931       -2.92151844331828       -0.09684464088835
H            2.65505581535199       -3.57068921729123        0.11865716337227
H            4.94741451339870       -2.76762992263450       -0.19545016939207
H            0.73151904584901       -3.90123266736367        1.16425944238460
H           -1.59675996168376       -4.65465289794360        0.99083920598195
N            2.07928388855160       -0.27682012129550        0.17042322243553
N           -0.53985481622049       -1.32030614858153       -0.54563854897713
C           -3.65506964048205       -3.37216612636501       -0.22571592278515
C           -3.92488910562235       -4.72153857409386       -0.46150321891208
C           -4.72410848208701       -2.48536481699465       -0.10675434381245
C           -5.22731906731629       -5.16710411519731       -0.57657290696257
H           -3.10852075513960       -5.41822071324387       -0.58296230206522
C           -6.02485934378548       -2.93755700142707       -0.21762323255964
H           -4.53380939698100       -1.44628891082633        0.10147305292192
C           -6.28247040240466       -4.27785395546020       -0.45333411651668
H           -5.42047278369672       -6.21256956780921       -0.76646408260749
H           -6.84249922255876       -2.23978265710798       -0.11620754217257
H           -7.29973506961288       -4.62828103159831       -0.54146089430145
C            5.74582727003408       -0.17482610539248       -0.55439779673753
C            6.86377156438724       -0.78537038527880        0.01568654797994
C            5.93318507676396        0.91140960423040       -1.40996817999150
C            8.13372314259210       -0.31549049486268       -0.25747767018047
H            6.73367376276268       -1.61170110532834        0.69871264476817
C            7.20666062895337        1.37388095978416       -1.68113205260113
H            5.08310137940464        1.38453407767911       -1.87622367179240
C            8.31015927863578        0.76507650426890       -1.10636949068635
H            8.98975248671602       -0.79112535857751        0.19788152678333
H            7.33752380676492        2.21419848621726       -2.34598367030993
H            9.30344496422223        1.13159922155656       -1.31719322715210
F            3.45443776980390        1.47743126467214       -0.07303983239052
F           -2.60940928547000       -0.92223510374498       -1.31015094141402
