65
 energy: -118.566130563332 gnorm: 0.000840958762 xtb: 6.5.1 (b24c23e)
Si          -0.20945837747542        0.80942748879874        0.40332628244120
O           -1.18916861040279        2.08775703226010        0.19328810856230
C           -0.95839889287788        3.46437201173120        0.10605359854022
C           -2.15471286155271        4.14688413484392       -0.50561243285186
H           -0.06659155374074        3.64946866670060       -0.50887639916875
C           -3.42060443034911        3.59083852880187       -0.38843296809178
C           -2.00030872812556        5.36478519787350       -1.15521387409270
C           -4.51871769841972        4.24498397883439       -0.91865118703822
H           -3.53045200706142        2.63911640555303        0.10790380423221
C           -3.10026954707694        6.02019418345100       -1.67822898142574
H           -1.01418664773635        5.79677478846178       -1.25392073299935
C           -4.36209886540776        5.46159679978886       -1.56025300791965
H           -5.50061931969080        3.80382844420281       -0.82810496403269
H           -2.97226888874720        6.96716514936920       -2.18233045964068
H           -5.22013728365937        5.97352483971381       -1.97105752014276
C           -0.71071094672838        4.03392996475010        1.52191134533976
C            0.47167869060791        3.43976045577829        2.10284288564040
H           -1.57956290815040        3.79999218624313        2.14269337484641
H           -0.59687470371384        5.11820883060700        1.45600762896705
C            1.44505512066214        2.88655544108536        2.52678566075982
H            2.30330933956163        2.42409955428266        2.91307818372381
Cl          -1.38562238320295        0.13585185363544        2.02676265978317
Cl           1.40903899600290        1.64139060727976       -0.76012104779273
O           -0.68964805038344       -0.26823620641876       -0.84377079694939
O            0.94779657682693       -0.36614903356447        1.12099592322084
C            0.15576557259466       -2.45609458909076       -0.50270866629758
C            1.50812081717841       -2.02524631137779       -0.43576212269583
C            3.13931742116623       -0.50717528072494        0.40167792972977
C           -2.17567765398998       -1.96835421693783       -0.38595485211774
C           -2.54153390610944       -3.29131107557049       -0.28409106328298
C           -0.19195028823100       -3.82338943403599       -0.52682259036519
C           -1.48573584505534       -4.23542330003397       -0.41277352534685
C            2.55474521590137       -2.69615157358235       -1.10194964212768
C            3.83828000306738       -2.23807952359032       -1.05705666782965
C            4.17461901493155       -1.08654677685046       -0.29986636435439
H            0.60791407460945       -4.54510014089828       -0.55664258765008
H           -1.72267433211845       -5.28566547987532       -0.37161908004694
H            2.30057189786012       -3.54723153474346       -1.71211714758314
H            4.61322262183800       -2.72928089819638       -1.62249043311252
N           -0.90331816281262       -1.56654318744867       -0.53794755020279
N            1.87674582919758       -0.95399364636137        0.34936407702017
C            5.53276713668779       -0.54181176459662       -0.26456181062433
C            6.63647918553706       -1.39449513861169       -0.24264747860994
C            5.74049068772351        0.83790983649617       -0.27621018211985
C            7.91761917729684       -0.87761884842989       -0.22340323677764
H            6.48712839463146       -2.46385756028207       -0.21375995536231
C            7.02507437088422        1.34682528308278       -0.26134795193713
H            4.89479887724242        1.50664370890849       -0.32237363518867
C            8.11620928626587        0.49349419128332       -0.23286224398017
H            8.76503068907476       -1.54676302774182       -0.19826201512653
H            7.17547243676475        2.41576258096225       -0.27553365193994
H            9.11843039976792        0.89481953044485       -0.21902887579740
C           -3.93051245528763       -3.69627515593277       -0.06341491847898
C           -4.44507522900071       -4.82949888320683       -0.69385327064407
C           -4.75201820715970       -2.96679258017901        0.79714299354830
C           -5.75232167116744       -5.21851094014201       -0.47376769647364
H           -3.82615415768437       -5.38977091708213       -1.37898505129413
C           -6.05712832695305       -3.36490368041018        1.01483402555706
H           -4.35916027781571       -2.10302844919058        1.31084973119464
C           -6.56216061020961       -4.48872739405973        0.38115435366433
H           -6.14235866346786       -6.09302248592961       -0.97335491429008
H           -6.68269506770318       -2.79603895722038        1.68586819409822
H           -7.58292140231527       -4.79573813771417        0.55245548715745
F           -3.06799082068615       -0.99443199458565       -0.45135404645929
F            3.34017594838562        0.46773644938666        1.27373135224150
