65
 energy: -118.563612673104 gnorm: 0.000729360032 xtb: 6.5.1 (b24c23e)
Si           0.19214018703473        1.15529555685398        0.60852218399341
O           -0.89475534364300        2.24526646875865        0.04508888288483
C           -2.29665385617642        2.28485784642143        0.08763511361633
C           -2.76257118115508        3.62215871042108       -0.43559163590151
H           -2.68237348041252        1.48245941153109       -0.55385457681624
C           -2.04227504094512        4.77289603633824       -0.14716434139161
C           -3.93399938474965        3.71859375250093       -1.17439212652613
C           -2.48451072889470        6.00355648080617       -0.59869889720324
H           -1.12803218653311        4.68973423295863        0.42014057917256
C           -4.37897944271626        4.95077014570123       -1.61967309874612
H           -4.49648444922041        2.82397195902604       -1.40316921820899
C           -3.65455720619210        6.09554733650354       -1.33324132645570
H           -1.91553076279444        6.89389759964881       -0.37450326412642
H           -5.29108805559851        5.01717927258560       -2.19516766326465
H           -4.00086979846311        7.05665658301872       -1.68422280663655
C           -2.86632537121526        2.10029257082426        1.51283700342016
C           -2.68306257953196        0.76505119084556        2.03488906791578
H           -3.93489905733721        2.33096606732843        1.48150728645379
H           -2.36630743180270        2.80890388361459        2.17769856822800
C           -2.52330327017724       -0.34034558167007        2.46758138538062
H           -2.37825225833367       -1.29867145749767        2.87091502941268
Cl           1.68794499546217        1.83393924253222       -0.62359251947139
Cl           0.21102319287846        1.79063827792597        2.57815817509010
O            1.25168919382013       -0.20055686441503        1.32904663408980
O           -0.56617339941717       -0.11336252628933       -0.35206262766071
C            1.67995748645613       -1.95300760822458       -0.16360943238400
C            0.31799677695464       -2.34500312603990       -0.15709810587459
C           -2.01305177856793       -1.86911924835099       -0.17103733224263
C            3.38166437180241       -0.44200042794448        0.51399078507420
C            4.36875775166824       -1.08239962704223       -0.20846115015184
C            2.67560506048212       -2.68619085269080       -0.84687965986329
C            3.96965154207176       -2.25983753771832       -0.88685081141108
C           -0.03818020919086       -3.71434230024345       -0.17572294912704
C           -1.32924618776403       -4.13452998775285       -0.11521085205998
C           -2.39450599210603       -3.18781990419717       -0.10534405003260
H            2.37299250101693       -3.55681798770849       -1.40467702504187
H            4.70248923146366       -2.79906732419850       -1.46478958739503
H            0.76429406779030       -4.43346681908850       -0.16842145029709
H           -1.56408509489908       -5.18439511561589       -0.06225830007755
N            2.10838014665299       -0.85897610689136        0.54712689024176
N           -0.73380072222494       -1.43929550149793       -0.15193497382363
C           -3.79917024942675       -3.59357543527887       -0.05527947557387
C           -4.21734208539306       -4.75795912422630       -0.70214867707145
C           -4.73842539677136       -2.84403128663084        0.65591073214959
C           -5.53790544506362       -5.15808739523683       -0.64133926240970
H           -3.50902350799995       -5.33538449943360       -1.27752590020199
C           -6.05684932962967       -3.25278532713798        0.71499239083104
H           -4.43477510525987       -1.94856342123289        1.17694898669331
C           -6.46231150877809       -4.40900065438088        0.06861073912975
H           -5.84866910553337       -6.05712052369748       -1.15275382971552
H           -6.77122391379942       -2.66591122102907        1.27265071573225
H           -7.49353924878208       -4.72460396427547        0.11655175618453
C            5.73726658087137       -0.56810441334960       -0.26971083983770
C            6.82308133454860       -1.44394719154163       -0.27188671160897
C            5.97178093489169        0.80521307133074       -0.35096553395086
C            8.11362193358056       -0.95607334444064       -0.34436091456278
H            6.65476746928595       -2.50772230684252       -0.18919802119591
C            7.26553336036059        1.28445028803637       -0.42658249147779
H            5.13850665252877        1.49026879341532       -0.37812608900789
C            8.33917186646881        0.40872572188945       -0.42171330300728
H            8.94731877680632       -1.64276361987001       -0.33757263147150
H            7.43636353978262        2.34823485216218       -0.49251471355202
H            9.34867861179035        0.78735909357105       -0.47867961662695
F            3.65070753386361        0.57051820978831        1.32038787750002
F           -2.90714593382986       -0.90658502265516       -0.36455698973279
