65
 energy: -118.566378881428 gnorm: 0.000511000224 xtb: 6.5.1 (b24c23e)
Si          -0.08091374104711        0.89371636370448        0.42390586924808
O           -1.05592081687826        2.11014205681415       -0.06854224009617
C           -0.90040726288834        3.49893561600173       -0.00488787536374
C           -2.08970940339331        4.16762801380747       -0.64739154530012
H            0.01998655085285        3.77944893385110       -0.54048245092727
C           -3.33255822577445        3.55082404979346       -0.63755937309503
C           -1.95729821743892        5.42823043840687       -1.21494852747363
C           -4.42852008569786        4.18608468375028       -1.19435199509810
H           -3.42467802055585        2.56751983480011       -0.20320499588518
C           -3.05531845519024        6.06429491800234       -1.76536946336179
H           -0.98933966288690        5.90983514666085       -1.22764924870895
C           -4.29356541456933        5.44412328166536       -1.75611207935775
H           -5.39208759675114        3.69763120935046       -1.18749469735820
H           -2.94386359574177        7.04447522088500       -2.20598409681752
H           -5.14984953814524        5.94050015891160       -2.18917119981859
C           -0.77944619650078        3.98099139820158        1.45894850890056
C            0.47555204215761        3.55978052425791        2.03961836543481
H           -1.60832864372062        3.55461556531225        2.02991629636541
H           -0.85209430727117        5.07130281523436        1.47935965452340
C            1.52704395762553        3.17303955990999        2.46159600705944
H            2.44150275914291        2.83480235423376        2.84832909896165
Cl          -1.04047879550382        0.58279812690508        2.24137612628852
Cl           1.63894452001622        1.64111841295761       -0.56420961970513
O           -0.67478419386129       -0.19913469264489       -0.75132171850290
O            0.98229447481761       -0.48296029538099        1.12216103871586
C            0.08003048818404       -2.44751016493399       -0.56330311269273
C            1.45272713479914       -2.09639065522482       -0.50226910602920
C            3.16055332766866       -0.72441968692295        0.41742396624446
C           -2.20717478213669       -1.84564382971840       -0.25306068827106
C           -2.64516288060990       -3.14895018341369       -0.24086791752207
C           -0.35042817959772       -3.78640229164109       -0.68384960366507
C           -1.65698520130563       -4.13519365145108       -0.52594400097239
C            2.45795261579535       -2.77928777046040       -1.21849724534489
C            3.76486488616442       -2.39529948928785       -1.15018721105988
C            4.16348143595360       -1.31757336794668       -0.32222004141998
H            0.40116533552584       -4.54501137481461       -0.82901075050996
H           -1.95466960338337       -5.16983892519854       -0.56384641780107
H            2.15699245840383       -3.57625163237280       -1.87820504818375
H            4.51125647083861       -2.89240343094981       -1.74819532100900
N           -0.92408180239294       -1.49733471686621       -0.45902409924722
N            1.87464718633905       -1.09087675501173        0.33783459917004
C            5.54918225128981       -0.85081516990375       -0.25514720343828
C            6.60584704425058       -1.76062581280250       -0.28755403464307
C            5.82985102790052        0.51410518659515       -0.18259511546035
C            7.91262244927921       -1.31458109838312       -0.23846587292053
H            6.39996185793937       -2.82035745473868       -0.32443012479303
C            7.13953678137254        0.95223840444430       -0.13797162165037
H            5.02062480008162        1.22798779296619       -0.18710091547360
C            8.18376675438002        0.04202510669619       -0.16345488392340
H            8.72332831242976       -2.02796009217267       -0.25570508014977
H            7.34643337832758        2.01054868481968       -0.08665073773263
H            9.20586533055967        0.38790811965496       -0.12586737202890
C           -4.03908287647208       -3.50338862412689        0.03133858679982
C           -4.64382743327363       -4.55607042850685       -0.65695788798543
C           -4.77780193929574       -2.81223935466844        0.99267158845446
C           -5.95418323412394       -4.90435058542914       -0.39251133821069
H           -4.09277057948600       -5.08442591699275       -1.42077374388646
C           -6.08707234256599       -3.16849219188107        1.25381904100432
H           -4.32020864156258       -2.00931464228020        1.54948283289942
C           -6.68001414499004       -4.21347622983695        0.56422511785476
H           -6.41247129224887       -5.71671149020383       -0.93703758946116
H           -6.64665931807265       -2.62865779020162        2.00266538675995
H           -7.70340754018982       -4.48850397034841        0.77023338157660
F           -3.03949954965848       -0.82047040652158       -0.15065777618775
F            3.41849588308174        0.18097319464615        1.34798152228512
