65
 energy: -118.572089132553 gnorm: 0.000618262627 xtb: 6.5.1 (b24c23e)
Si          -0.23307722062691        1.62323713860054        1.06557968091278
O            0.37473418853630        2.61126675864998       -0.06136448764299
C            0.24871793024638        2.61065332655512       -1.46938391580757
C            0.98430149001767        1.44445451321062       -2.07708083869475
H           -0.81405050074356        2.54566847128638       -1.72644083352255
C            2.27615684856633        1.14582853980999       -1.66469104515267
C            0.37730973255385        0.64381282789603       -3.03539649789841
C            2.94565892794562        0.05626026277837       -2.19504747262828
H            2.74577355680672        1.76732409849474       -0.91545252769168
C            1.04139706980041       -0.45225104503760       -3.55552791930044
H           -0.62716557522680        0.87420162843109       -3.35970724707572
C            2.32636560645918       -0.74999152783920       -3.13422839973483
H            3.95505279342703       -0.16757604771703       -1.88188390506284
H            0.55494489327229       -1.07711046272778       -4.29062724797968
H            2.84648505746692       -1.60617469214556       -3.53800762742869
C            0.82071623035129        3.94313837855922       -1.98472766677713
C           -0.03816496040834        5.04953567128308       -1.62078192432088
H            0.91574675575654        3.89175484747238       -3.07309339998882
H            1.80974710346776        4.09228505814505       -1.54578590713950
C           -0.77398853231032        5.94007119921308       -1.31031190161604
H           -1.40469142894944        6.73044128697261       -1.03274604094381
Cl           0.56908938647629        2.75744603845805        2.61063237652377
Cl          -2.16100110156361        1.57673121821451        1.81218158198606
O           -0.80770282992976        0.47905369465869       -0.37988592509897
O            0.59049849416927        0.23338793310744        1.66085275425743
C           -0.92202319843867       -1.76797465874699        0.23777741353847
C            0.48246759661469       -1.81207416388068        0.41679124560775
C            2.54448954377292       -0.74495107118382        0.96784682134631
C           -2.86852472718351       -0.52243562564965       -0.30130202174365
C           -3.72138554640345       -1.59090107876856       -0.10663376664274
C           -1.74852837743841       -2.90555045696018        0.36414799667374
C           -3.10188592283426       -2.82044229277276        0.22265560361958
C            1.24486894700083       -2.94441026628282        0.05579607748327
C            2.60303803805083       -2.95308848821545        0.12033324745634
C            3.32196827496512       -1.80695179224906        0.57349460294649
H           -1.28784009045619       -3.83743466012085        0.64687527858989
H           -3.72235408200748       -3.68680710676554        0.38396744062438
H            0.71628053300819       -3.79731223654491       -0.33695056012464
H            3.15662201578193       -3.81549814335021       -0.21076749807772
N           -1.54201284279650       -0.59571366915523       -0.12829701909539
N            1.19637157345523       -0.74433379624389        0.93664372845011
C            4.78416934496886       -1.79616346141562        0.64522629749791
C            5.46951248570563       -2.97865729414606        0.93526520866939
C            5.52619074297520       -0.63311139854864        0.43035670817741
C            6.84878823305366       -2.99713182094249        1.00085613644780
H            4.91645405479844       -3.88249128116194        1.14150222453856
C            6.90633476294937       -0.65914887851410        0.49291766239098
H            5.02892901845413        0.29635913209279        0.20409371805579
C            7.57437050838957       -1.83887125170238        0.77543860630693
H            7.36037438992295       -3.91929360616107        1.23363202487870
H            7.46366002524154        0.24912056696789        0.31981823951449
H            8.65250414374966       -1.85499388049070        0.82524332062677
C           -5.17334155669603       -1.45091352108392       -0.22189796780662
C           -5.94223201254312       -2.47187893015252       -0.78084037487901
C           -5.81017863565128       -0.30522730417458        0.25712710520051
C           -7.31542253512718       -2.34556364136341       -0.86498196252682
H           -5.45829209665784       -3.35452501699092       -1.17275663402707
C           -7.18445579973923       -0.18895202921209        0.17346830223183
H           -5.22870148075471        0.47955257988438        0.71608685578007
C           -7.94088108902775       -1.20511324417289       -0.38769032734238
H           -7.90050902738213       -3.13899191842311       -1.30619217057832
H           -7.66805277870333        0.69858656552048        0.55248556427248
H           -9.01439828629867       -1.11004653342565       -0.45239059385016
F           -3.29522310223635        0.63439469603041       -0.78886990660084
F            3.06620203996732        0.35789386215314        1.48578171019900
