65
 energy: -118.569847890106 gnorm: 0.000606777292 xtb: 6.5.1 (b24c23e)
Si           0.05949048832888        1.02631336847397        1.24403037486056
O            0.65717131242922        2.13239472595868        0.24017649159134
C            0.23190055291741        2.55451561750577       -1.03972913672841
C           -1.05814297919027        3.32523933874834       -0.93171297980452
H            0.07837743525074        1.67223049092941       -1.66874969398866
C           -1.26992619814821        4.18050722666964        0.14122075404429
C           -2.05096665201784        3.17188809098390       -1.88892548778475
C           -2.46403407643776        4.86858841374927        0.25807407495164
H           -0.50396207011666        4.28506574391640        0.89511601900000
C           -3.24248964140817        3.86505476175937       -1.77380040695975
H           -1.89284491969577        2.49899045265104       -2.71942103411032
C           -3.45166286798279        4.71291445424524       -0.69952722083965
H           -2.62447909287952        5.52352074196572        1.10157288929470
H           -4.01325382135233        3.73458660790982       -2.51923953750058
H           -4.38609096211193        5.24655912231924       -0.60561156652066
C            1.35783582654030        3.41927041301247       -1.63424859845703
C            2.44849686930084        2.59301273318164       -2.10438329632429
H            1.71506434671032        4.10143542728522       -0.85970354232844
H            0.95901562277864        4.00263263289125       -2.46851257863691
C            3.30735983801932        1.86380578000605       -2.50858921148493
H            4.08104529269388        1.25500862477098       -2.87189849354316
Cl          -1.88765967133377        0.80744371525055        1.86368243157693
Cl           0.76560044648524        1.94754620159538        2.96410585037397
O           -0.45886348827007       -0.02750315627966       -0.42265171380857
O            0.98237641675332       -0.36352225935973        1.59364521068025
C           -0.39927434193470       -2.31482511177142        0.02339914188037
C            1.01088797736120       -2.25188803238950        0.13936998859879
C            2.94892591073887       -0.90954307659520        0.51731422130079
C           -2.43875000365480       -1.17669712278887       -0.38314590749858
C           -3.20829316331935       -2.31684589195915       -0.24649136615704
C           -1.13814656746652       -3.51310164963599        0.09987366502160
C           -2.49818440605241       -3.51600188026033       -0.00677669126031
C            1.87271547432086       -3.25856362505917       -0.34447159272405
C            3.21491261717456       -3.05715650197332       -0.45010802761927
C            3.80265363548011       -1.81292432494943       -0.06887049093035
H           -0.60299322916712       -4.42478398379877        0.30776888448538
H           -3.05207838481029       -4.43298618924827        0.11124460806346
H            1.42908557609098       -4.17402634762000       -0.70017685579180
H            3.84714612583611       -3.81944591431631       -0.87341105488556
N           -1.10655189893395       -1.16283435829182       -0.24276223216964
N            1.63109213009490       -1.13336979966564        0.67612099081217
C            5.22552471838760       -1.53403042720780       -0.26753314030063
C            6.16494041976933       -2.56151632868291       -0.16138651145135
C            5.67110196880224       -0.24771936238000       -0.57820394544676
C            7.50777416441059       -2.30938042255374       -0.36431202134550
H            5.84509941980926       -3.55627646392572        0.11043276313668
C            7.01546887542252       -0.00371527639497       -0.78364928873653
H            4.96399669912021        0.56187611222154       -0.67117733472867
C            7.93871830706421       -1.03122091839503       -0.68007366184260
H            8.22265189325057       -3.11364077590447       -0.27157391127680
H            7.34381705464119        0.99582081369944       -1.02700837135627
H            8.98844836462590       -0.83693964162766       -0.84040122108602
C           -4.66832200387792       -2.27693508328427       -0.33961798938084
C           -5.36661828919859       -3.31844275298683       -0.95121606000366
C           -5.38300395883872       -1.21032924466187        0.20729546559105
C           -6.74617917159714       -3.28998303505903       -1.01891660557675
H           -4.82371332606151       -4.13919201506792       -1.39678141916166
C           -6.76297406864956       -1.19144849263014        0.13888899564234
H           -4.85709329147060       -0.41021409540970        0.70509408169715
C           -7.44887788273878       -2.22774916138042       -0.47350231372527
H           -7.27577463407335       -4.09855921313884       -1.50093021783581
H           -7.30620551851209       -0.36410202276762        0.57002209957513
H           -8.52716089232236       -2.20891168203382       -0.52571499583902
F           -2.96176399166854       -0.02376393376229       -0.78009744873260
F            3.37216868468564        0.22848796351641        1.04802517350236
