65
 energy: -118.572563613599 gnorm: 0.000202017562 xtb: 6.5.1 (b24c23e)
Si          -0.45517016686295       -1.44720342316634       -0.50738686765464
O            1.13916629061864       -1.42840460979004       -0.18070134827852
C            2.04274865364558       -2.47812511183945        0.05383684734822
C            3.04858138677464       -2.08322943492119        1.10809664371004
H            1.48557403389459       -3.35985622146712        0.39870823209727
C            3.08261912915347       -0.80415933732344        1.64330364204874
C            3.97686653262257       -3.01985767403077        1.55194236227933
C            4.04375195100308       -0.45313204474659        2.57611933491161
H            2.34229064807340       -0.08164194692551        1.33668887136425
C            4.93455556185524       -2.67154716306186        2.48542486669312
H            3.93948903833985       -4.03066861214552        1.17219464419038
C            4.97847343736417       -1.38285174136382        2.99293987486865
H            4.05984165815959        0.55112580411014        2.97480095539745
H            5.64887913150210       -3.40899345223634        2.82101801866787
H            5.73130062387418       -1.11013888761986        3.71754573178794
C            2.75423990804184       -2.82536072404897       -1.27205400457632
C            1.82677482412110       -3.43333060390167       -2.20140352148135
H            3.58068125862917       -3.51107573742347       -1.07408041634067
H            3.15169082993291       -1.90532482856912       -1.70866300744984
C            1.02238368038106       -3.92660059598333       -2.93656061248259
H            0.31888860323254       -4.34975116234015       -3.58873657831057
Cl          -1.46426239319754       -1.82258265612498       -2.23987319684792
Cl          -0.93366638219597       -3.26960107119472        0.45720869254291
O           -1.28846964722975       -0.59831813303129        0.74340372456391
O           -0.20072972747295        0.25431753584926       -1.30924774475078
C           -1.53782824768986        1.75951869697306        0.52858170131840
C           -0.16360885147261        1.97440638648271        0.26939597425260
C            1.80609467049163        1.30682711079033       -0.86996391778934
C           -3.40512285169649        0.27911123702543        0.48461009294851
C           -4.32874996152592        1.29309701406101        0.58296477950199
C           -2.45055580945418        2.81275676714757        0.75466152371838
C           -3.79447491498822        2.59843568304997        0.78292197168976
C            0.57961741440119        3.03164178979434        0.83706395178166
C            1.91025306124485        3.17940455838816        0.58305184155600
C            2.58673572003835        2.28362823313546       -0.28186377462147
H           -2.05699167214159        3.81284678389080        0.83263645664807
H           -4.47670293427710        3.42320826157637        0.90480090492973
H            0.07829661515512        3.68904987309966        1.52781184959128
H            2.47493168041068        3.96242232112653        1.06220359247192
N           -2.07513409523577        0.48282711714721        0.52043913438828
N            0.49781127257687        1.15854547490469       -0.62526393863302
C            4.02577738856219        2.38982560019065       -0.53132051525250
C            4.62183681499053        3.64450281368614       -0.66326782961661
C            4.82569232899704        1.24986748588230       -0.61127563543133
C            5.98238072556286        3.75384954772044       -0.87543453728748
H            4.01037022871087        4.53411362067280       -0.62573677604193
C            6.18703630480830        1.36701131970189       -0.81588435272197
H            4.38714171994592        0.27268691311049       -0.48191811045300
C            6.76993279223940        2.61638159260285       -0.95043754860175
H            6.43044811202298        4.73040895300229       -0.98475023071348
H            6.79611840266631        0.47707000689121       -0.86623251557290
H            7.83354199363354        2.70438225946109       -1.11288952524808
C           -5.76990404093361        1.04617355832544        0.50953583552751
C           -6.64708072002434        1.76910822551746        1.31921763633770
C           -6.29113359089055        0.10013061283519       -0.37396397532727
C           -8.00856667082046        1.54624574121131        1.24999792355954
H           -6.25706006411385        2.48690886064455        2.02554096642941
C           -7.65441956335879       -0.11513274904237       -0.43972267938345
H           -5.63105751945191       -0.45515808083185       -1.02195755836551
C           -8.51734202647635        0.60454631488336        0.37036947978017
H           -8.67573065626842        2.10686922311607        1.88794635594805
H           -8.04481232344384       -0.84854331783870       -1.12884317430459
H           -9.58169398889734        0.43187260229910        0.31818997645615
F           -3.75865295378817       -0.99536378366644        0.42883708583318
F            2.29639334623413        0.49319420433177       -1.79367358360137
