65
 energy: -118.571296096498 gnorm: 0.000369860580 xtb: 6.5.1 (b24c23e)
Si           0.25561326388298       -1.11485345734874        1.38961469900852
O           -0.58507689640330       -2.23178821879339        0.60308674989249
C           -0.79466599115651       -2.55462722975195       -0.75361545116456
C           -2.25094849755578       -2.36407979410681       -1.09367445681059
H           -0.17603953272449       -1.90651775754817       -1.37972356379072
C           -3.23002386866267       -2.58749071855510       -0.13449279966226
C           -2.62583848714105       -1.97609600494698       -2.37379328470331
C           -4.56692596786128       -2.42730892386166       -0.45345930641183
H           -2.93407338184101       -2.86863011475372        0.86416330406899
C           -3.96336374950564       -1.82295164115298       -2.69348128736706
H           -1.86525611347179       -1.79363107245753       -3.12025869443121
C           -4.93638388119200       -2.05024242964872       -1.73407703330569
H           -5.32124524225745       -2.59558972050499        0.30067864012185
H           -4.24706341887442       -1.52103094352610       -3.69131501503635
H           -5.98000151548047       -1.92909077338384       -1.98556997000789
C           -0.36602081466149       -4.01853151568340       -0.96805197242380
C            1.06501471233149       -4.13943039124629       -0.78656901978460
H           -0.64610852381789       -4.33211134840324       -1.97711689360032
H           -0.88613918729491       -4.64538813666150       -0.23957688052173
C            2.24932705299714       -4.16582055251742       -0.62020397496840
H            3.28706976230103       -4.20756850959351       -0.47703776918680
Cl          -0.45618961300185       -1.70580430310568        3.24660342341089
Cl           2.25022115419050       -1.20441827845710        1.87858666002634
O            0.81212412239672       -0.34205473557047       -0.39487342809869
O           -0.39132370374339        0.44510274761014        1.64259917009089
C            1.31286743199727        1.92295585168945       -0.14530284300147
C           -0.05953885891924        2.20304101879102        0.05863018171529
C           -2.22943407449389        1.36390308904593        0.58756056320859
C            3.00052677255893        0.31354804289884       -0.57003695266058
C            4.01920972255347        1.24735173851778       -0.56094346135416
C            2.31210447574708        2.91646578084203       -0.20412563744198
C            3.62507467495599        2.59267629896232       -0.38281127501849
C           -0.68964779408441        3.37071817992398       -0.42229876126484
C           -2.04548649318737        3.49115069144871       -0.44442475382515
C           -2.87913247543336        2.42516808674731        0.00842429226960
H            2.01882120128531        3.93974549970837       -0.03875885539523
H            4.38328260330601        3.35858931045673       -0.36776207621219
H           -0.06729022996516        4.14514838071643       -0.83959691630647
H           -2.51070469012661        4.37083489059858       -0.85664668739086
N            1.71392214767258        0.62313355015197       -0.36034021218480
N           -0.88806652672653        1.28181510737690        0.68590419867587
C           -4.33772380349521        2.47703588394104       -0.10739262108363
C           -5.01514881432241        3.67911290174067        0.10038703258173
C           -5.07106214277310        1.33519425816725       -0.42984381137474
C           -6.39152104813413        3.73362964293022       -0.00407640259760
H           -4.46260827753106        4.56573025234732        0.37402609205947
C           -6.44727430245559        1.39835483822697       -0.53534247742551
H           -4.56418596189504        0.40073209408827       -0.61466266250129
C           -7.11276304137563        2.59420966354535       -0.32222980176434
H           -6.90467506377989        4.66811609574813        0.16838403143468
H           -7.00233318192423        0.50711125277362       -0.78589553860306
H           -8.18853183937958        2.63907041130873       -0.40138601351713
C            5.42196190113027        0.85486831472885       -0.70496310125541
C            6.30744764479218        1.64134070318117       -1.44127325389251
C            5.89665281080173       -0.29583311689528       -0.07450833700451
C            7.63650686639075        1.27975487657488       -1.55054073670249
H            5.94595171646226        2.52406051590932       -1.94836634147677
C            7.22830100978590       -0.64769563984642       -0.18472020619844
H            5.22502722256268       -0.89431458856256        0.52173003579450
C            8.10114530783881        0.13558671498459       -0.92247009733336
H            8.31274164266322        1.89192911404480       -2.12888290144732
H            7.58846717266093       -1.53583111720447        0.31227395813339
H            9.14086564738808       -0.14301869884135       -1.00688635728973
F            3.21907905924405       -0.95100345253949       -0.90125318141725
F           -2.88058909324633        0.36434038574120        1.16853004372285
