71
 energy: -124.903303980223 gnorm: 0.000615974449 xtb: 6.5.1 (b24c23e)
Si          -0.15177826009642        0.97787936945142        0.12646143038571
O           -0.76498430631107        2.46100840299821       -0.04840807464846
C           -1.70382170656634        3.22134805330578        0.66884701691637
C           -2.57481014011130        3.99227831455999       -0.28813610965272
H           -2.32239704389842        2.55941214649313        1.28526795926733
C           -2.06611076405865        4.43800864850657       -1.50017561537644
C           -3.88595233521918        4.29502004215093        0.05441015520328
C           -2.86145391235378        5.17298108502949       -2.36119352200881
H           -1.04990292295519        4.19046562527294       -1.76579217252354
C           -4.67729980257101        5.03679834648842       -0.80422536443813
H           -4.28670317306659        3.94403767841303        0.99488170276491
C           -4.16664592071513        5.47695690085070       -2.01380358431536
H           -2.46019215528118        5.51125916939153       -3.30537461370961
H           -5.69664835691913        5.26783958389351       -0.53080043592035
H           -4.78676865386133        6.05284377891442       -2.68525872831648
C           -0.93792242408922        4.19903899880980        1.58590369773794
C           -0.07982642110943        3.46834978813393        2.49244455985058
H           -1.65712488411366        4.80371190912994        2.14346960077569
H           -0.32630794477568        4.85477386435619        0.96007293249714
C            0.63206044430361        2.80069709858000        3.18488829343885
H            1.25784444316209        2.23758240334377        3.81003328429077
Cl          -1.59064614123463        0.30574832377338        1.61562992881948
Cl           1.43410645623820        1.64001395573311       -1.16817836423747
O           -0.55849553237633       -0.21089487385984       -1.05355726005699
O            0.93215887057307       -0.02672158511866        1.06549844056454
C            0.20531012362281       -2.30329078724738       -0.26127927379501
C            1.56046172579415       -1.81936952820087       -0.32363659275689
C            3.12981814743834       -0.15282992108056        0.37051454765676
C           -2.12582102214255       -1.80755641156896       -0.49454908082216
C           -2.51896978618621       -3.05473469141566       -0.07233622147737
C           -0.14860696247931       -3.59792765444940        0.17129186170325
C           -1.47412157591773       -3.95241459746882        0.25817079847395
C            2.58732613826742       -2.43001125979419       -1.07019179798109
C            3.85135452307727       -1.88767202762870       -1.06469422785991
C            4.16815180716998       -0.72232197858037       -0.32797165261156
H           -1.73943627564128       -4.92133386025151        0.64989614616237
H            4.61797120900868       -2.32391243715848       -1.68506424734631
N           -0.83477368935706       -1.46078764455762       -0.61539938517750
N            1.90017983406623       -0.68843131825806        0.39652543331668
C            5.50706791978515       -0.12890782923106       -0.35237270568574
C            6.63823941194312       -0.94318331673583       -0.31415243619779
C            5.66523912547973        1.25391990124256       -0.43765162023883
C            7.90147824498204       -0.38407072871046       -0.34659585617507
H            6.52417968120019       -2.01454874883586       -0.23428922191743
C            6.93211866583110        1.80488626118276       -0.47488162426086
H            4.79404154459786        1.88693530658283       -0.50193478167103
C            8.05219961929979        0.99081844345823       -0.42599948126231
H            8.77192766535866       -1.02248685493508       -0.30775972902502
H            7.04596749454053        2.87608300976269       -0.54577862226311
H            9.04037990219144        1.42530731097220       -0.45186164799132
C           -3.92953583402635       -3.42303068688457        0.06740622810016
C           -4.35877056420436       -4.70185926735080       -0.28633149461463
C           -4.85485596848939       -2.51178572326477        0.57565658326492
C           -5.68655439577092       -5.05668027750865       -0.14482935271887
H           -3.65263190252200       -5.40893367725051       -0.69665419911629
C           -6.18015314679091       -2.87603820713290        0.71925903120860
H           -4.52747615248915       -1.52984610604022        0.87982560965739
C           -6.60100968665482       -4.14562831447079        0.35823314115733
H           -6.01020986425817       -6.04688121224648       -0.43004322565348
H           -6.88823299954678       -2.16560518259948        1.11848923324302
H           -7.63783077679813       -4.42569672313817        0.46939036136229
F           -2.98267110059973       -0.88985413618478       -0.91403486755090
F            3.28978732920856        0.89107074840883        1.16847549681364
C            0.88905437648733       -4.56231512643035        0.66186873958231
H            1.04244136779659       -5.36047178389466       -0.06218363520777
H            1.83717713618090       -4.06759799581889        0.84572556700729
H            0.54702570737716       -5.01945358803445        1.58764396207382
C            2.30003936706459       -3.58775029945724       -1.97834187640868
H            2.74008032688899       -3.39416424922693       -2.95416290632380
H            2.74684067393641       -4.50169349184063       -1.59134805390420
H            1.23292622268278       -3.74042736533047       -2.10220608008191
