71
 energy: -124.906366580305 gnorm: 0.000685630085 xtb: 6.5.1 (b24c23e)
Si          -0.27527605379988       -1.86220663912179       -0.41008344854485
O            1.32615914657680       -1.73547118478010       -0.20692782582192
C            2.38847182124478       -2.03686408308626        0.66933698548966
C            2.42925195648332       -1.01403455278485        1.78107712455977
H            3.28790394280036       -1.92372994227627        0.04503478875595
C            1.32201554601512       -0.81957767660663        2.59784724477421
C            3.55918763895672       -0.22940553018327        1.97271881911642
C            1.34180944860892        0.15658328354191        3.57777342717513
H            0.44129054020355       -1.42707077802355        2.46047561093161
C            3.58051805698747        0.74097772633055        2.95915828657606
H            4.42864328311243       -0.37563275380418        1.34770539752727
C            2.46937107315142        0.94002623372892        3.76037211466130
H            0.47413387455082        0.30181966143510        4.20442967632865
H            4.46665626678115        1.34316926238587        3.09832417574610
H            2.48564154404031        1.69782479367983        4.53104161938489
C            2.38100848828055       -3.47238508448402        1.21775698807058
C            2.37890359319951       -4.42215968731295        0.12599964862893
H            1.49747463094332       -3.63489324455986        1.83567720981794
H            3.27857335851322       -3.60272698396926        1.82918800831805
C            2.37359663191958       -5.15354630722718       -0.82042218534862
H            2.34996428266575       -5.81991436726108       -1.62984738218218
Cl          -1.04444641508556       -2.72959048244507       -2.07345600840875
Cl          -0.79434736821623       -3.39545898241116        0.95133015982978
O           -1.19832608080491       -0.81013778726904        0.60714541657242
O           -0.10472482120491       -0.30588230241725       -1.56090109000548
C           -1.36854918402404        1.48037738935090       -0.01295194366145
C            0.05576701255918        1.54168528706729       -0.13813527082322
C            1.94818863505328        0.68543426955499       -1.29094789428996
C           -3.27456645496862        0.03336775105281        0.07316529308713
C           -4.16761912325179        1.05815702648825       -0.11663377484420
C           -2.24594689810287        2.57037991497061       -0.20344938462506
C           -3.60151509843488        2.35659114863414       -0.23377852882974
C            0.90908578534788        2.41860003018642        0.56455129458344
C            2.25174313056083        2.42358466620498        0.28352905441002
C            2.81959684042633        1.57820308941745       -0.69743903241808
H           -4.26446234282472        3.18355494598869       -0.43043953577006
H            2.90783322511878        3.05547496096718        0.85999977733492
N           -1.94851166628986        0.23496918815491        0.17430753813302
N            0.63986358218127        0.65106857891934       -1.01643174001167
C            4.24869448441554        1.63285842065376       -1.00954471154213
C            4.92115948538114        2.85574235933462       -0.95318948218147
C            4.97557053825416        0.48764387288355       -1.33918572351699
C            6.27565255165276        2.92866291203702       -1.21266983204261
H            4.37114776699092        3.75787914753108       -0.73011956987833
C            6.33159280090167        0.56583778515952       -1.59308261240629
H            4.48508656336295       -0.47166752718194       -1.38574447997815
C            6.98836679277681        1.78361044758981       -1.52919267131992
H            6.77792691422184        3.88396342573733       -1.17063894243145
H            6.87931247008834       -0.33134531214088       -1.84025227110869
H            8.04780163374086        1.84081507641748       -1.72823723877153
C           -5.61332909144753        0.84000544480784       -0.19806154904448
C           -6.48528473853903        1.76240134053546        0.38195433452627
C           -6.14421729262354       -0.27296719007041       -0.84985509711093
C           -7.85171092778960        1.57148429354006        0.31736829624187
H           -6.08625660023139        2.61642483368920        0.90926069915137
C           -7.51253307465369       -0.45542196395971       -0.91409274187669
H           -5.48783275473552       -0.98738829441886       -1.32127123367844
C           -8.37040364689840        0.46250514371726       -0.33118768177783
H           -8.51491016383735        2.28831561459438        0.77862419612613
H           -7.91111970264715       -1.31960445808880       -1.42352523575774
H           -9.43859322310552        0.31441935187112       -0.38049360688106
F           -3.65272616598358       -1.22564770695879        0.24284483266136
F            2.33429830106431       -0.16516461927663       -2.23190221481070
C           -1.72315903784488        3.94469622182677       -0.49407952572312
H           -1.76519071675402        4.56857588305776        0.39678836446866
H           -0.69790942977251        3.91022893724135       -0.84850138556293
H           -2.34242833230955        4.41451958082479       -1.25471598368315
C            0.39343392853626        3.24353108251424        1.70460631225732
H            1.03129872682117        3.07998148576555        2.57111764891977
H            0.42300175922965        4.30494170063833        1.46613994616861
H           -0.62232164753904        2.96361587209371        1.96404054633311
