71
 energy: -124.908010906896 gnorm: 0.000542659655 xtb: 6.5.1 (b24c23e)
Si           0.34587728279153        1.42868218243223       -0.72454646641679
O           -0.74876274753313        1.83791340439819        0.38957850714848
C           -1.74379024160047        2.82751733817644        0.43272091346222
C           -2.98689864053661        2.24175702604235        1.05473163957587
H           -1.95686324656565        3.17730855574602       -0.58571299328788
C           -2.89474708001138        1.17135606092474        1.93502360827226
C           -4.23416975124843        2.78518675090963        0.77381072338449
C           -4.03338914999412        0.64981988870569        2.52382420955932
H           -1.92311401928323        0.75009605856712        2.14515648476873
C           -5.37034524455628        2.26974669665652        1.37233813802029
H           -4.31132333671302        3.61059116184101        0.08086466158008
C           -5.27301169956550        1.20109173944167        2.24841464703801
H           -3.95271840579420       -0.18807591367671        3.20118639945929
H           -6.33571867003900        2.70065891231962        1.15027886863330
H           -6.16104867472181        0.79517201877940        2.70987263090208
C           -1.23879345387268        4.01427684029886        1.27814356315185
C           -0.09327473642681        4.63268937444335        0.64661471378444
H           -0.95301435034929        3.63975675555174        2.26477141951295
H           -2.04540984275728        4.74297476944221        1.39034434627240
C            0.85784849601550        5.09741726723362        0.08943184655298
H            1.69600023491066        5.51476038036498       -0.38285984602264
Cl          -0.44983918855194        2.50380226281525       -2.38579721743733
Cl           2.28037316897207        1.99026459897966       -1.16634363579329
O            0.99091392270583        0.40485666468331        0.73907612760780
O            0.01391609671972       -0.08034722005302       -1.50711309066973
C            1.53462167262498       -1.74954793850148        0.01581901917683
C            0.12318268171399       -1.97742032624622       -0.09956421737755
C           -1.96562980538015       -1.05380197430404       -0.81894787319830
C            3.21328114805330       -0.20130577301430        0.68361015516583
C            4.24334661632826       -1.06905804805208        0.38302572143074
C            2.54667666661591       -2.67374413311373       -0.31571568502395
C            3.86419355140162       -2.32262244177286       -0.14643802715751
C           -0.59165908722633       -3.01855720223096        0.52881434488237
C           -1.96165496286658       -3.04824340710455        0.45104976243113
C           -2.70962557492785       -2.05232587531399       -0.23723473219195
H            4.63999000599723       -3.00428529786704       -0.45717050070975
H           -2.50224640342733       -3.81277954486503        0.98486616656553
N            1.92618417065304       -0.50748742284382        0.47753006112503
N           -0.62347051111247       -1.03568056520009       -0.78821298635179
C           -4.17033498839952       -2.10259199152984       -0.30881031998692
C           -4.81941850842708       -3.33912451955163       -0.35075790569958
C           -4.94336978373589       -0.94095207080258       -0.33416347079635
C           -6.19711853801039       -3.40945089063195       -0.41115340128582
H           -4.23904802712995       -4.24962477201711       -0.36591423262786
C           -6.32157958350646       -1.01905204090860       -0.38945662018559
H           -4.47299204241274        0.02704183036899       -0.29118292092076
C           -6.95523375386454       -2.24980331499446       -0.42677265944588
H           -6.68234922044721       -4.37369070685985       -0.45056412544935
H           -6.90217338280990       -0.10913058540515       -0.40169075316045
H           -8.03239447022850       -2.30689672939217       -0.47214188163970
C            5.64799805544861       -0.69358233053113        0.55498481435606
C            6.58065444387974       -1.63219172488925        0.99588023740396
C            6.07712320675461        0.59749569510855        0.24575378680235
C            7.91078042015077       -1.28438030430058        1.13233977521394
H            6.25527757044084       -2.62939422882727        1.25446608285271
C            7.41005372834925        0.93584579521048        0.38039640518078
H            5.36912138602192        1.32395421486226       -0.12224787519385
C            8.32988926076662       -0.00028689816021        0.82442358165796
H            8.62353576959345       -2.01702982498163        1.48154431668241
H            7.73351187614932        1.93559720316727        0.13291022986012
H            9.37036226613483        0.26851617011350        0.92916189302703
F            3.42290493447346        0.95222829397694        1.30031132500005
F           -2.50771296611318       -0.06877157157449       -1.52089555437133
C            0.11108907800614       -4.03060401859226        1.38238557240337
H            0.21529384338908       -4.97494727947121        0.85120331127778
H            1.09670724373032       -3.68284675139964        1.67518787207048
H           -0.47536250459452       -4.22021657292737        2.27836436890121
C            2.21064831315006       -3.98111348189323       -0.96699412682834
H            2.86454646431527       -4.13516861888012       -1.82264842094406
H            2.36942883264864       -4.80972313139742       -0.27919932481531
H            1.18034518583672       -3.99628446748038       -1.30807638716598
