71
 energy: -124.910644448123 gnorm: 0.000303246412 xtb: 6.5.1 (b24c23e)
Si          -0.44356888703221       -1.73602596796171       -0.49829948781874
O            1.17244765535342       -1.68481056591858       -0.35744820031490
C            2.12375822314360       -2.55825863568155        0.21217350214904
C            3.03790668404686       -1.68577813830115        1.04654563369125
H            1.60051403912752       -3.27196248171005        0.86414316755548
C            2.43680872539683       -0.83041908219747        1.96608157357916
C            4.41839614470543       -1.65320297895569        0.91023538612401
C            3.19371901686634        0.05195362781595        2.71182873479655
H            1.36375566862579       -0.86304123056978        2.08643404987285
C            5.17764295970850       -0.77081070940494        1.66196241246084
H            4.91973056399588       -2.31240184393192        0.21900492440822
C            4.56953912966491        0.09024001265720        2.55599225600898
H            2.70997942308147        0.70742287919301        3.42161195632834
H            6.25055292181543       -0.75290249808706        1.53944927644579
H            5.16453419923795        0.78270233496387        3.13294745805751
C            2.82032730798944       -3.33862656946554       -0.91044238121025
C            1.84778188865772       -4.12599091729252       -1.64103843303616
H            3.57183559820678       -4.00295566393451       -0.47725073516210
H            3.29759718095256       -2.63720111751998       -1.60085829852185
C            1.01090457076838       -4.74335713534009       -2.23136190031735
H            0.27815903686175       -5.28615341634403       -2.74881503407151
Cl          -1.52175106237908       -2.25725128891568       -2.13976467494590
Cl          -0.80672936092812       -3.48208120617803        0.64676436278560
O           -1.21936146339968       -0.82696854250993        0.75583944350472
O           -0.26345733268422       -0.06075972140409       -1.40293760480319
C           -1.48276546092183        1.50178245523790        0.38622887739276
C           -0.06370914549629        1.60654034600210        0.22141092660837
C            1.80613337296885        0.89095698840173       -1.06155043104655
C           -3.34610164880355       -0.00224915855575        0.39643007657813
C           -4.26973897573999        1.01037375869304        0.31139088496387
C           -2.39208608059665        2.57907415541851        0.32037627769362
C           -3.74207343433447        2.32940950971725        0.30094210851720
C            0.80102091520798        2.41926826337953        0.98453373749493
C            2.13748018291537        2.45722824336394        0.67778199146254
C            2.68948611617354        1.71966260005550       -0.39659168899230
H           -4.43123744739482        3.15149070718047        0.19446287468016
H            2.80347316597681        3.03215541227960        1.30057993852670
N           -2.02512488840703        0.22963721516805        0.48481719071050
N            0.50531568864873        0.81870289597302       -0.75950347091698
C            4.11048093102603        1.81895440261183       -0.72917318579530
C            4.79111057182008        3.01947458129358       -0.51118584827844
C            4.82462788776105        0.73512328746263       -1.24141034326277
C            6.14020002166468        3.12653431200180       -0.78499574833911
H            4.25330676326168        3.88328484418442       -0.14988541666367
C            6.17486877857173        0.84668449376833       -1.51015678533686
H            4.32903267466953       -0.20566311319713       -1.41027161411191
C            6.84059650280167        2.03905908769664       -1.28065157814044
H            6.64797797057836        4.06446849292129       -0.61406757506435
H            6.71252535161261       -0.00487776219712       -1.89982296266917
H            7.89624049450179        2.12286948872991       -1.49072477016134
C           -5.70873570392440        0.75600323839255        0.21594454532675
C           -6.60929172116568        1.59807577991383        0.86948583185539
C           -6.20405450117376       -0.31149540230968       -0.53329394877571
C           -7.96928246519913        1.37307877750922        0.78101825345649
H           -6.23811860632814        2.41496378100357        1.47077470484775
C           -7.56606448916871       -0.52824954406308       -0.62002610484748
H           -5.52509988272420       -0.96115050104514       -1.06315927255252
C           -8.45273053801267        0.30999801479562        0.03570263654187
H           -8.65520982334443        2.02764748363113        1.29837507119536
H           -7.93691089478212       -1.35605434629779       -1.20528097021982
H           -9.51600993457464        0.13591716335049       -0.03264117946375
F           -3.68758759633108       -1.27971594600148        0.47299936061788
F            2.16832329595717        0.15289491141182       -2.10166634979821
C           -1.91182197239574        3.98786907315961        0.14604723352961
H           -1.93299667846791        4.52143519063612        1.09457712670814
H           -0.90042490171975        4.01319523943001       -0.24723346371820
H           -2.56966503637452        4.51313395737584       -0.54210866715995
C            0.30359051111026        3.13732525605505        2.20287559945616
H            0.98037069710322        2.94564812127903        3.03303826324830
H            0.28232928838565        4.21338482297013        2.04068046456153
H           -0.69061318712581        2.80032327820929        2.47884401179023
