71
 energy: -124.904058945905 gnorm: 0.000651130444 xtb: 6.5.1 (b24c23e)
Si          -0.37940092611907        0.84359859222428        0.38142136476327
O           -1.19778958094443        2.21891992907861        0.56838013424557
C           -0.97628972539047        3.56751115822668        0.24625808548732
C           -2.19843209114814        4.14943759399927       -0.41683284550352
H           -0.11495215079036        3.65415429448683       -0.42662057366800
C           -3.44686921296456        3.56741272464583       -0.25038207758406
C           -2.07880937332566        5.30201028232271       -1.18378222238209
C           -4.56138147912701        4.12916036708406       -0.84866014507113
H           -3.53330397368976        2.66735095148367        0.33830837299998
C           -3.19499029209596        5.86601008809163       -1.77385089977275
H           -1.10602003315671        5.75307461824611       -1.32206493087288
C           -4.43912505796111        5.27999913464220       -1.60780131789997
H           -5.52858322600508        3.66572865644492       -0.71993643676767
H           -3.09319195851240        6.76205841932349       -2.36891530372725
H           -5.30974631064231        5.71893931941408       -2.07299665479320
C           -0.66403434934916        4.32501058466827        1.55399634045425
C            0.56743812744955        3.83028565955017        2.13022718039414
H           -1.48872450436480        4.16239583058287        2.25324157224832
H           -0.58011896322002        5.39332103876432        1.34014434340218
C            1.58131156780496        3.35796556511187        2.55482749635528
H            2.47369997643224        2.96281795499639        2.93798575542405
Cl          -1.80197641482266       -0.03204643056034        1.72903980690791
Cl           1.21125874622840        1.71586096880686       -0.84675466232934
O           -0.70117467735269       -0.21261584477743       -0.94514651466109
O            0.76039439648008       -0.18818809661089        1.20685622989929
C            0.12024880226310       -2.34508332280384       -0.34766129406106
C            1.45919243953230       -1.81255278578164       -0.35125602675629
C            2.97096682677153       -0.18410054404490        0.53247207890838
C           -2.22262016992591       -1.89513582393027       -0.52882769446795
C           -2.57700240948060       -3.18020757593571       -0.19532195655267
C           -0.19221397880529       -3.68145726249552       -0.02960083227378
C           -1.50803526104463       -4.07636521327000        0.04296667995323
C            2.51013521449329       -2.30914990923119       -1.14684185377009
C            3.75608480098985       -1.73138946965096       -1.07401534692331
C            4.03176316793303       -0.64319642495707       -0.21118624819770
H           -1.74418245649249       -5.08104160923339        0.35518083143560
H            4.53937691937408       -2.07405831044150       -1.73106659848558
N           -0.94193825983237       -1.50768901007459       -0.63895464924267
N            1.75446560460553       -0.74730411582480        0.48148680405889
C            5.35422913463710       -0.01669322244557       -0.14982043650626
C            6.50512706524117       -0.80270113813958       -0.19860224280246
C            5.48091840037058        1.36953589541736       -0.06390714191340
C            7.75457513865146       -0.21498817443963       -0.14990131327331
H            6.41619098800886       -1.87810193435101       -0.25011970758478
C            6.73417023211872        1.95023074595109       -0.01967920884896
H            4.59744914540527        1.98891539204266       -0.05936231860347
C            7.87310757472752        1.16239912514130       -0.05937297689694
H            8.63958384208160       -0.83345049316160       -0.18038046232932
H            6.82251269743821        3.02448078450616        0.04243926910264
H            8.85051313483911        1.61968111077923       -0.02211867680035
C           -3.97737440959726       -3.57938488632818       -0.03659753442232
C           -4.41313700747194       -4.82703404095920       -0.47987875119075
C           -4.88236006969915       -2.72280599577454        0.58982218007493
C           -5.73192676329591       -5.20432166869552       -0.31189480680667
H           -3.72087085809864       -5.49032807171653       -0.97784416136280
C           -6.19810062452789       -3.11008430026985        0.75856169102427
H           -4.54149506689207       -1.77085743479238        0.96640430336416
C           -6.62772476462335       -4.34744039671222        0.30664576683426
H           -6.06302665229482       -6.16958383690005       -0.66593152112123
H           -6.89148317786829       -2.44392312894309        1.24935406013898
H           -7.65725188683025       -4.64535616088409        0.43800663226036
F           -3.10802256285845       -0.97718802405851       -0.88111248370598
F            3.09421446780578        0.77521064812391        1.43661481137006
C            0.87781308411556       -4.65609213100053        0.36073347368253
H            1.05849131810274       -5.36768298218222       -0.44303879405249
H            1.80876962392523       -4.15110617919223        0.59723390542115
H            0.55320916635448       -5.21908402029596        1.23262032049959
C            2.26465916445949       -3.37662449250101       -2.17049509954479
H            2.67916521855294       -3.05909657156392       -3.12502901715447
H            2.76213460467130       -4.30236514824851       -1.88732947688994
H            1.20447108874920       -3.56835725097172       -2.29879527313935
