71
 energy: -124.825776752524 gnorm: 0.000555623543 xtb: 6.5.1 (b24c23e)
Si          -0.69481502385536       -1.70755027895195       -0.72761782187087
O            1.43866105575665       -0.95808949368538        0.59886513114323
C            2.20163360007920       -1.81561720622593        0.99753418098415
C            3.49726932665243       -1.53070653567278        1.60464616093690
H            1.95097922286623       -2.87918279303759        0.88359456940437
C            3.85113581340651       -0.22039206762532        1.93926129733538
C            4.41446492929853       -2.56314600118755        1.80987944542394
C            5.10371835873062        0.05264271443473        2.44891389933852
H            3.12496999654951        0.56518044862380        1.79332034223126
C            5.66835637312736       -2.28259441726108        2.31612938434901
H            4.13629239285684       -3.57593318480399        1.55881141442113
C            6.01571073792358       -0.97655588623870        2.63066567731401
H            5.37618934081923        1.06679145282392        2.70000231913197
H            6.38070391649711       -3.07995440839400        2.46699306925305
H            6.99873453199934       -0.76125926024581        3.02229124561969
C            1.79943675810070       -4.78471159035776       -1.31491404122301
C            1.19357054651284       -3.67439359133404       -1.59627980072264
H            1.34824554909345       -5.73829619557734       -1.53387658909019
H            2.77640213820759       -4.80794368641227       -0.85883328865313
C            0.56797656282237       -2.57488246433189       -1.86574616925282
H            0.72677255269266       -2.10760219121745       -2.82730839332012
Cl          -2.46524149136705       -1.89972377741605       -1.80349664367509
Cl          -0.72616797468838       -3.22188360973670        0.74097127367125
O           -1.28577643494174       -0.65405653174969        0.57731662625276
O           -0.32044151730303       -0.08974168513178       -1.64005807178525
C           -1.65766672300174        1.59686613960269       -0.05020683300990
C           -0.23973680090590        1.74407583196769       -0.20283345393593
C            1.72197177838683        0.86987640272545       -1.21638163092228
C           -3.45160632713471        0.09424315208051        0.40695639870149
C           -4.41782044763502        1.04787646662273        0.17843353852225
C           -2.60614084623863        2.61220517099007       -0.29697659679305
C           -3.94564277783395        2.33220774931686       -0.18728565513233
C            0.55532790339270        2.71345085070588        0.44500303723974
C            1.90876163309620        2.73608369555735        0.22352248227437
C            2.54992437289913        1.81090226405776       -0.63844479794510
H           -4.66955888606853        3.09168255568840       -0.43612342703690
H            2.51998009471460        3.43911616014971        0.76717896474540
N           -2.13896906377057        0.35005419592145        0.29916974869771
N            0.39948210548658        0.83835640070963       -1.02375880383983
C            4.00013700086201        1.82637154154221       -0.82657034161562
C            4.69296692149623        3.03932791688382       -0.80462325826575
C            4.72909864285393        0.64537226191203       -0.98227672655067
C            6.06804507472408        3.06819760189258       -0.92594583835019
H            4.14602247238573        3.96644816578119       -0.71696295312984
C            6.10487150075906        0.68078280830344       -1.09725910971473
H            4.22350757683009       -0.30685862140513       -0.99284279272582
C            6.78162436322759        1.88891670925192       -1.06638331323154
H            6.58669979430418        4.01569076190749       -0.91272445835756
H            6.65238599072081       -0.24345354325505       -1.20686328750026
H            7.85723735150539        1.91257438340229       -1.15556939092822
C           -5.84718133424837        0.74790789684050        0.27525238809446
C           -6.72773517580297        1.69461171225984        0.79950419295115
C           -6.35263824871589       -0.47239528707254       -0.17417959792200
C           -8.07969518011816        1.42292931986669        0.88074639761634
H           -6.34496284968058        2.63548274148061        1.16753502430808
C           -7.70679001780041       -0.73502154283824       -0.09290544447041
H           -5.68753112168714       -1.20359383137621       -0.60667175674828
C           -8.57388351623162        0.20779211215788        0.43503756047840
H           -8.75073457586998        2.16061880702643        1.29608332207996
H           -8.08786800656831       -1.68098756731986       -0.44704660162925
H           -9.63110132711546       -0.00229325991104        0.49882894848866
F           -3.74741014089372       -1.11705453353735        0.84918715745407
F            2.17217555561905       -0.03537506816811       -2.07871660105221
C           -2.18270081631042        3.95893540992006       -0.80180040743069
H           -2.26576144618137        4.70915126087064       -0.01738460469622
H           -1.16010750482317        3.94141674324698       -1.16524470943152
H           -2.83801056675307        4.26064060525327       -1.61591082888624
C           -0.03545435630640        3.63604458906027        1.46873239394653
H            0.60402043560323        3.65676552673894        2.34889610565989
H           -0.09820073131324        4.65267262805526        1.08455125938571
H           -1.02685704169899        3.30982095584739        1.76671808339030
