71
 energy: -124.903182049821 gnorm: 0.000453567792 xtb: 6.5.1 (b24c23e)
Si          -0.23143936254815        0.94266419603592        0.29230091118654
O           -1.22970570893036        2.15889398242326       -0.13269543717839
C           -1.09955313998237        3.54471230380240       -0.00273342894631
C           -2.27742744393835        4.22189127264743       -0.65542343400047
H           -0.16332765144701        3.86459865024557       -0.48457582313256
C           -3.51729224657641        3.59847640669527       -0.67614716759849
C           -2.14176787706698        5.49187756356349       -1.20008426278601
C           -4.60733876856072        4.23710943628291       -1.24013961808500
H           -3.61111634496646        2.60678305597470       -0.26142291679648
C           -3.23440082070074        6.13117168121374       -1.75811834112763
H           -1.17615942727566        5.97810458883998       -1.18959582882348
C           -4.46946637853582        5.50500733074757       -1.77885943277328
H           -5.56827930236628        3.74379086653085       -1.25729120323074
H           -3.12095254936350        7.11884818110561       -2.18122790536254
H           -5.32130401143070        6.00423346336083       -2.21742861396185
C           -1.04761469949899        3.94350979219987        1.48937287390573
C            0.14346618876970        3.41537908954606        2.11420413620013
H           -1.93208819718320        3.53335958853943        1.98441072101044
H           -1.06395366785059        5.03324586799394        1.56791441374401
C            1.13849559720570        2.93372095791586        2.57467363901821
H            2.01055020459582        2.52277196823840        2.98797377358606
Cl          -1.50080388023525        0.33598552883159        1.88039409950902
Cl           1.47372856161784        1.81492557448979       -0.67765139030286
O           -0.58641059588624       -0.16987284126342       -0.96370833849161
O            0.86902547937948       -0.23794783575000        1.12975851984880
C            0.15500964011627       -2.34324989035196       -0.39187159708249
C            1.51152841167884       -1.86725556096084       -0.42673981969565
C            3.08646666113279       -0.32392208513199        0.48680971520594
C           -2.16513706607087       -1.75543389380883       -0.40911988759620
C           -2.57326491936131       -3.02527586817506       -0.08052191294409
C           -0.21502609904290       -3.66765301053881       -0.08026381211954
C           -1.54340901530575       -3.98864656532146        0.06589664198596
C            2.53680777265860       -2.39170823272495       -1.23856333381277
C            3.80503384132436       -1.86737272578726       -1.15612174073770
C            4.12856283561603       -0.81749168237425       -0.26495756130414
H           -1.81799902224684       -4.98591330342298        0.36974989177725
H            4.57384278325674       -2.23038031271387       -1.81954762122338
N           -0.87366705807053       -1.43801607663279       -0.59316823402418
N            1.84368635594426       -0.81811433085395        0.40928550374979
C            5.48044842770118       -0.26108545814807       -0.17945041437088
C            6.59120450446676       -1.10195249598176       -0.24258706364034
C            5.67513652622030        1.11446376614716       -0.05629897274079
C            7.86792439942019       -0.57869664244236       -0.17121454532797
H            6.44957378334532       -2.16995444942356       -0.32300884634978
C            6.95535160460223        1.63051005905633        0.01028912080986
H            4.82288756758181        1.77598503395790       -0.03988099110863
C            8.05407075371190        0.78823230922158       -0.04357588509035
H            8.72138554627458       -1.23946071228294       -0.21275721664297
H            7.09656803736569        2.69700403827151        0.10128289964472
H            9.05271752763459        1.19503181079908        0.01171811735557
C           -3.98193351921583       -3.35590851019146        0.14500760043902
C           -4.49504018755630       -4.57919764251798       -0.28533008624412
C           -4.82090321304126       -2.46419140993951        0.81345364640899
C           -5.82060448681829       -4.89810587111953       -0.06133017888795
H           -3.85750743393796       -5.26925801443996       -0.81850929802652
C           -6.14456956297067       -2.79225272709887        1.03674170311947
H           -4.42681205645476       -1.52849729350133        1.17841780354769
C           -6.64938323936838       -4.00616254062180        0.59964117867440
H           -6.20975053087283       -5.84510128622876       -0.40542324885980
H           -6.78516695222351       -2.09760039149649        1.55878143789467
H           -7.68465148475011       -4.25800874896602        0.77453809918978
F           -3.01644239222877       -0.77584997309041       -0.66742181725751
F            3.25696581469616        0.59667487383600        1.42408241193147
C            0.81895206851726       -4.70968955295683        0.22245177409032
H            0.94342041361885       -5.38307466090817       -0.62374673153898
H            1.77862101574270       -4.25924052339774        0.45507876838059
H            0.49509896553023       -5.30498561450474        1.07281346073437
C            2.23950739905209       -3.42670671759770       -2.28140235706378
H            2.67014124407179       -3.11324838706473       -3.23014684163536
H            2.68814043369875       -4.38243622216746       -2.01671901284315
H            1.17040294732827       -3.55992617661671       -2.41174169218172
