71
 energy: -124.910354017301 gnorm: 0.000489531382 xtb: 6.5.1 (b24c23e)
Si           0.12932181580296        1.42700129579161        0.06147057153310
O           -1.43825615574428        1.25945588391854        0.46068703013083
C           -2.27004217243718        2.17261698293059        1.14008886344069
C           -2.48222922672573        3.42435111697722        0.32983424549163
H           -1.80446189758665        2.42554104269024        2.09949202020667
C           -2.64672034086065        3.33299582886764       -1.04553541862212
C           -2.52375107438750        4.66779769196212        0.94304817600874
C           -2.84377144592228        4.47440670386299       -1.80102961918613
H           -2.59982772595232        2.36498807003272       -1.52223281364459
C           -2.72853402131654        5.80781094122475        0.18670734740086
H           -2.37931080335810        4.74158238944310        2.01074221133904
C           -2.88850150449774        5.71337909446538       -1.18538524318889
H           -2.96008355175750        4.39538848079827       -2.87180200390825
H           -2.75370655055117        6.77381428720758        0.66907423910172
H           -3.04114295476577        6.60551067538582       -1.77499716368949
C           -3.61982367885271        1.47555409551080        1.38729893605144
C           -3.43302193069341        0.21868892213367        2.07775826552639
H           -4.10011159814202        1.29914045918929        0.42087348580057
H           -4.25588264401189        2.13839674929248        1.97885645866212
C           -3.22785621579183       -0.83237389406809        2.61192142937903
H           -3.07442810383273       -1.74478002004311        3.10528771211291
Cl           0.92004042144799        2.27728472078060       -1.62402813182517
Cl           0.59903375372912        3.04063851678747        1.36481259463234
O            1.11299844284955        0.38579047279235        1.03248931307333
O           -0.10944334377722       -0.05504390988176       -1.07908923225181
C            1.59509681781573       -1.74366710350993        0.10025224844833
C            0.19469670924970       -2.04038340374942        0.10971587535756
C           -1.95495926854654       -1.37950879622826       -0.66339661035551
C            3.26614465932020       -0.04446221609605        0.32843284016579
C            4.28348880861078       -0.86843155508076       -0.08631522728865
C            2.60288837063930       -2.62550833592859       -0.35002931305904
C            3.90429489451704       -2.19572539039967       -0.42020601474001
C           -0.39618310942390       -3.17201056203310        0.71418965503131
C           -1.74063556305961       -3.39411078928846        0.55798548726532
C           -2.57060853356996       -2.51673843963593       -0.17910374169959
H            4.66042147026632       -2.85720780029831       -0.81143671354335
H           -2.19711175224560       -4.24054139562241        1.04677006403179
N            1.99644730394193       -0.46699708268529        0.46104003259291
N           -0.64387425156294       -1.15080708922557       -0.53222876750063
C           -3.98674035448740       -2.82137058492762       -0.39158048737697
C           -4.38091688010067       -4.14649678279845       -0.59000984968448
C           -4.96397028159761       -1.82705959226013       -0.39014450265171
C           -5.71147035511175       -4.46404978201258       -0.78010487686090
H           -3.63542704960313       -4.92752066586784       -0.62162225972952
C           -6.29407520589610       -2.15083909064636       -0.57582047220890
H           -4.68372021791305       -0.80249404614009       -0.21611822597851
C           -6.67447021165124       -3.46816020390595       -0.77122777003647
H           -5.99893857321101       -5.49305280603998       -0.93868415107161
H           -7.03927383761981       -1.36959391080940       -0.56426277371824
H           -7.71456900549524       -3.71809745848418       -0.91669480796404
C            5.67228205487871       -0.41617547391779       -0.19340176416825
C            6.70901854991058       -1.28165790458825        0.15876097019997
C            5.98690198185808        0.86452823475526       -0.64777387959927
C            8.02515283556754       -0.87312032629635        0.06625885086761
H            6.47809857899580       -2.26815183464739        0.53311844318591
C            7.30632561495560        1.26495134552984       -0.74122967338506
H            5.20097490207693        1.54109495036141       -0.94462792824970
C            8.32879373490320        0.40128138896614       -0.38435946659485
H            8.81731261957780       -1.54999378495751        0.35078845949813
H            7.53702372200116        2.25790878573038       -1.09627556620379
H            9.35807053091324        0.71917290556255       -0.45575385238479
F            3.46964389012497        1.20939020336917        0.70170506583702
F           -2.60783962935265       -0.47094457194980       -1.37526808672523
C            2.26558566082738       -3.98813444795864       -0.87625112861300
H            2.52405050793349       -4.75751072642637       -0.15117825476027
H            1.21032918913650       -4.07060321476926       -1.11541900821955
H            2.84418492682034       -4.17851315120000       -1.77726639436527
C            0.39756147407717       -4.06756335094238        1.61740479347938
H           -0.13814752571968       -4.19356971615032        2.55638903104788
H            0.52229881292112       -5.05540202598705        1.17803973789406
H            1.37478249146151       -3.64660999886444        1.83038274025984
