65
 energy: -118.219173228255 gnorm: 0.000463071855 xtb: 6.5.1 (b24c23e)
Si           0.34080827472495        1.27457701151914        0.88066825234939
O           -0.46380783750729        2.69276109563329        0.66531570946421
C           -0.79939941293128        3.32027318113453       -0.55370872814234
C           -2.13703918913098        2.80909616637462       -1.02807455625237
H           -0.03647344838729        3.08116054042178       -1.30687879632910
C           -3.27944707749816        3.01938544996259       -0.26622961702824
C           -2.23406415577494        2.06959888264072       -2.19877898516623
C           -4.50007798556063        2.51426008762447       -0.67804662021764
H           -3.20662611745964        3.56287554029723        0.66374079301003
C           -3.45260101679749        1.55557697289968       -2.60668303513760
H           -1.34652793114240        1.88867300447462       -2.78840145632044
C           -4.58988932488269        1.78244197682030       -1.85032237609468
H           -5.38227180419065        2.68423286232189       -0.07769738793083
H           -3.51459416099161        0.97493140001795       -3.51616318618805
H           -5.54323581739761        1.38883603604055       -2.17373016853239
C           -0.80940293127724        4.84222163209117       -0.33036599032142
C            0.53769882426308        5.32723883962186       -0.11967224971486
H           -1.24855407440214        5.32904598132009       -1.20566040420208
H           -1.41418898557179        5.06861284011346        0.55002916850218
C            1.66956579368525        5.67530343067855        0.04975826517429
H            2.65629914229195        5.99459688020452        0.20483741734221
Cl           0.03418112128321        1.32444409442419        2.88443497730285
Cl           2.04691586753136        1.79084036339911       -0.21693159207072
O           -0.65305205948074        0.39797697798276       -0.21369531478092
O            1.13820550127863       -0.43716247533694        1.28862382602977
C           -0.19059252467312       -1.90206037980307       -0.63942354402768
C            1.22115149828801       -1.77050557708175       -0.62943890308986
C            3.20002822345811       -0.93848211128243        0.40953290571067
C           -2.33267574172082       -1.14596295135947        0.14636972481821
C           -2.95135027177873       -2.31801238439962       -0.21359603857983
C           -0.82653246105055       -3.07963086883373       -1.08502606734613
C           -2.16141483189082       -3.28143507288576       -0.90178184751337
C            2.04346724991334       -2.42132106899497       -1.57466553240840
C            3.40013520410923       -2.28958174941282       -1.54316386474248
C            4.02445167031973       -1.51972720630786       -0.53825690222045
H           -0.21797496100723       -3.85178433292151       -1.52564148497566
H           -2.63524711809235       -4.18756178928925       -1.24230147838845
H            1.56877005064671       -2.97850489217877       -2.36478688049215
H            4.01466559051229       -2.75161380956683       -2.29923206074587
C            5.48051064564983       -1.34270460617487       -0.52450267439602
Cl           3.80976168253411       -0.13918284248515        1.78313433473605
N           -1.03049586211787       -0.90665067233012       -0.15921733267705
N            1.85852361179317       -1.04803575664565        0.35330269093669
Cl          -3.10894480557902        0.08983833168888        1.03301182400682
C           -4.36522772796098       -2.59461390750763        0.07349544835074
C           -4.73498836321129       -3.82044131942046        0.62272805151163
C           -5.35535344305511       -1.66591727718434       -0.23925124900378
C           -7.04337362703892       -3.17180674206214        0.56476620109243
C           -6.68435926722016       -1.95649515911280        0.00518458750184
C           -6.06504293285629       -4.10263488075570        0.87239792434097
H           -3.97163182896117       -4.54210995447816        0.87461886710909
H           -6.33943947491701       -5.05184942055076        1.30856495307130
H           -8.08215517589690       -3.39394534047782        0.75787304832130
H           -7.44508156635451       -1.23173386511869       -0.24460322810837
H           -5.08060678977629       -0.72599262960013       -0.69246770012344
C            6.32165020204044       -2.44191337513345       -0.68298067522189
C            6.03822242141856       -0.07180427867525       -0.39878051473561
C            8.24196805880262       -1.01081411004060       -0.55704402735665
C            7.41067377488139        0.08871296022073       -0.41674016665357
C            7.69390867680740       -2.27558405403834       -0.69209209408444
H            5.89513644318700       -3.43033422915613       -0.77499666240578
H            8.33800356331412       -3.13537419926702       -0.80425387071672
H            9.31400702406196       -0.88226412187280       -0.56507476096261
H            7.83453039709109        1.07740206878787       -0.32333817128443
H            5.39060459164807        0.78705080302908       -0.31511577399307
