65
 energy: -118.221062526091 gnorm: 0.000607170343 xtb: 6.5.1 (b24c23e)
Si          -0.01365863268664        0.98691464342011        0.86742370245302
O            0.52602468116385        1.87233155116801       -0.37352005638778
C            0.71845653961374        3.26968806028560       -0.42582632098779
C           -0.61215701054011        3.97649550075994       -0.40264535113220
H            1.31201094621199        3.58108528305413        0.44318451323787
C           -1.66931003609315        3.47036839364335       -1.14710178679855
C           -0.80404589855903        5.10998240052691        0.37336500418709
C           -2.90660667445832        4.08619297692111       -1.11110799216767
H           -1.51712610731220        2.57741855578109       -1.73479994652498
C           -2.04062841584350        5.73085309877745        0.40167975066152
H            0.01247327525721        5.49550559722542        0.96616571750956
C           -3.09336584151618        5.21959336045786       -0.33787898836512
H           -3.72752931539378        3.67929093816886       -1.68382873193235
H           -2.18537359466223        6.60966109843743        1.01266116655864
H           -4.06064740904829        5.69928261309880       -0.30564119072146
C            1.48672269970118        3.58708060120380       -1.72010465022479
C            2.84681047905583        3.09770517465926       -1.65769017462106
H            1.49477517411144        4.67036064951850       -1.86741090077915
H            0.96568059154386        3.11706068597163       -2.55743734703452
C            3.97045864145636        2.69329769138005       -1.57891961046525
H            4.95783106752452        2.34470308472977       -1.51316456780297
Cl          -1.92860735459635        0.94437180273223        1.67636019346154
Cl           0.73628309294649        2.19019168544779        2.47590552745497
O           -0.54106120280604       -0.18563083599512       -0.48802201564771
O            0.99141164175990       -0.25753518429547        1.46445569758792
C           -0.54423246614321       -2.38090584191854        0.31812392415808
C            0.86970293565464       -2.36843115774422        0.40012563007810
C            2.88567384665219       -1.07059888576269        0.40707203875799
C           -2.55329373497156       -1.31214313685168       -0.39999195570818
C           -3.32830185766519       -2.41390121721636       -0.08583673554779
C           -1.31209264159989       -3.51861209303394        0.64292738260001
C           -2.66487845528103       -3.52738038634655        0.47909727227368
C            1.65266138046136       -3.51033500709815        0.12478603060737
C            2.99614231509073       -3.40670311284239       -0.07742569142766
C            3.64028506464612       -2.13997339702045       -0.02811620206942
H           -0.80496318701053       -4.36736342748858        1.07052110504826
H           -3.24718179025346       -4.39249910245226        0.75280634694504
H            1.15088486877581       -4.45513648557003       -0.00327259791005
H            3.58175107021858       -4.27313346214629       -0.33796835541640
C            5.05028381469440       -1.99960533475085       -0.40563612097157
Cl           3.54693781629170        0.46659472543660        0.73715607528682
N           -1.22379876860227       -1.28644495060986       -0.17319222172001
N            1.57088160879641       -1.20870987037582        0.68489559732968
Cl          -3.20531641437415        0.09008699856176       -1.10302746465068
C           -4.78069681512375       -2.45575738624662       -0.30183906350424
C           -5.61143919195271       -2.86750263681505        0.73874434145055
C           -5.34786574225091       -2.12818979373395       -1.53092159330003
C           -7.53769390987095       -2.59447628191837       -0.66351120236902
C           -6.71725073117736       -2.19949159866170       -1.70704396009930
C           -6.98038464705009       -2.92923010442379        0.55950115972705
H           -5.17930176607695       -3.11253219680829        1.69767087693833
H           -7.61474842044930       -3.23772438259578        1.37714051007386
H           -8.60722993577800       -2.64308415821702       -0.80297734747668
H           -7.14638231265949       -1.94667689496910       -2.66516840445886
H           -4.71291995899635       -1.83765704194744       -2.35299001794229
C            6.00088829183746       -2.89487268173374        0.08005670970980
C            5.45399692562559       -0.99027898988228       -1.27818109740234
C            7.72475232563330       -1.75624539566128       -1.13931542950896
C            6.78214524468717       -0.87334142255577       -1.64119590619678
C            7.32955281888481       -2.76803436868935       -0.28026824967542
H            5.69843043329227       -3.67489304738124        0.76316759376240
H            8.06007905311375       -3.45970803460264        0.11250454708682
H            8.76291383960435       -1.65779884773160       -1.41913638679080
H            7.08586494106915       -0.09263933804727       -2.32311381156797
H            4.71658481539263       -0.31626367921640       -1.68625096765494
