65
 energy: -118.222282968617 gnorm: 0.000319662557 xtb: 6.5.1 (b24c23e)
Si          -0.10796510178489        0.89225695848128        1.37895094220202
O            0.12957046054602        2.21381989121789        0.48533283983832
C           -0.22782812935969        2.59058537782224       -0.82386287850773
C           -1.03777565393877        3.86274692460887       -0.78887579728134
H           -0.81578526958230        1.79461257640608       -1.28878269445197
C           -0.91028012371699        4.75852759832356        0.26291616680771
C           -1.91564684528700        4.14793119510789       -1.82727186863578
C           -1.65598959192540        5.92440453552829        0.27684659019861
H           -0.23877291838510        4.52486709624566        1.07468833625098
C           -2.65514229769431        5.31651535100074       -1.81445753427589
H           -2.02270206753589        3.44736435213879       -2.64417311653949
C           -2.52690678309833        6.20700396347233       -0.76132196447203
H           -1.55670927757554        6.61323718788496        1.10261433013538
H           -3.33783259159952        5.52957668921562       -2.62431469096439
H           -3.10935005644751        7.11660263191545       -0.74898587366512
C            1.06659616294692        2.79243061152577       -1.63925130463665
C            1.66109710606865        1.52070288394884       -1.98537657123537
H            0.83355263380049        3.34591347942483       -2.55263401285424
H            1.76338164540687        3.37944275606480       -1.03571198936366
C            2.11036762686529        0.44644822296404       -2.26346247535216
H            2.51837387959672       -0.48327034873372       -2.52813566879749
Cl          -1.89903577080164        0.33775609292402        2.26772793310460
Cl           0.66687434176892        1.84459069721190        3.07706365135032
O           -0.60541650791171       -0.05450309120783       -0.21025077429959
O            1.06461692878712       -0.32716804851093        1.60854300421121
C           -0.37799265668553       -2.34906637555074        0.12748976330477
C            1.03350905631691       -2.22629227537175        0.17316807860939
C            2.97571517681170       -0.83635847837399        0.41943810302068
C           -2.50719667700698       -1.34693236959239       -0.27269031311031
C           -3.17335077382592       -2.55241986665678       -0.15322386024947
C           -1.03349870036255       -3.59314383252363        0.24532043319095
C           -2.38890832219157       -3.69090478147888        0.14085268321775
C            1.88011793481795       -3.23877526011769       -0.32824519721761
C            3.21441619922368       -3.02632186440442       -0.49926239877049
C            3.79324551587373       -1.76352714472001       -0.19029051168988
H           -0.43878681268322       -4.46152439532400        0.47470650705618
H           -2.88262296937210       -4.64190526032156        0.26063722382627
H            1.43170340294343       -4.16581342504898       -0.64516766519663
H            3.84270670059777       -3.79118077133502       -0.92587046159016
C            5.20310999316113       -1.50065217293010       -0.49694961457455
Cl           3.54897632002184        0.65111513653272        1.02663492701650
N           -1.17302728837230       -1.24972769553224       -0.10840442289796
N            1.66839879873684       -1.09314500449396        0.65934707354373
Cl          -3.30904373460456        0.11384863138674       -0.63236205356088
C           -4.62989568614580       -2.67329708963355       -0.29718076169065
C           -5.35804081269114       -3.34442650514671        0.68337464148115
C           -5.29972066491745       -2.15791145170054       -1.40406358817593
C           -7.38891556963453       -2.95669817515853       -0.53199799004103
C           -6.66990785620947       -2.30180479449325       -1.51801598130900
C           -6.72874197384160       -3.47816547449206        0.56833042518927
H           -4.84610057572757       -3.73542693512022        1.55014928654005
H           -7.28432419562644       -3.98857119649906        1.34092672881948
H           -8.45973864180755       -3.06155389877152       -0.62123102636779
H           -7.17906823367844       -1.90114241219279       -2.38193302791926
H           -4.74282961607650       -1.66222132483840       -2.18379548550493
C            6.16820619433542       -2.45791466310699       -0.18682752256209
C            5.59827723374421       -0.32106265581448       -1.12577244258125
C            7.88476053262207       -1.05486363112489       -1.10117311869074
C            6.93014480805612       -0.10466966387510       -1.42514995007496
C            7.49925502551880       -2.23223037718263       -0.48184746081095
H            5.87390529579017       -3.36939506948606        0.31243592368678
H            8.23877463220875       -2.97651068338642       -0.22580622212397
H            8.92484766749300       -0.87962364895915       -1.33164843461354
H            7.22480918725698        0.81077204629851       -1.91619285870531
H            4.85693728679707        0.41437822555335       -1.39799200724116
