65
 energy: -118.222330432266 gnorm: 0.000340295226 xtb: 6.5.1 (b24c23e)
Si          -0.25159621713785        1.21806895305706        0.95375926148776
O            0.40271673719703        2.03639110142278       -0.27075727068531
C            1.31911141768786        3.10189321530807       -0.31719271198662
C            2.59027402045048        2.63224679391898       -0.97903296444761
H            1.53266570729481        3.44799781368051        0.70181256753865
C            2.53835389614654        1.65494364995328       -1.96457177570401
C            3.81825715968645        3.16723674794696       -0.61396694080352
C            3.69970995088341        1.21702807448628       -2.57588836239217
H            1.58104874190617        1.23246575227419       -2.23078537860063
C            4.97890241367201        2.73032777099073       -1.22820065112219
H            3.86259507970970        3.92008566004971        0.15987511004210
C            4.92229129555046        1.75528806980618       -2.20979062405619
H            3.65024869225011        0.45662901234845       -3.34290988865481
H            5.93108475386556        3.14832307738744       -0.93612871690525
H            5.82949899722963        1.41390151568390       -2.68674316534858
C            0.67954283588368        4.25278619284831       -1.11725157457844
C           -0.50888387856468        4.72420028076509       -0.43881225831063
H            1.40337037694885        5.06516752769580       -1.21919430288271
H            0.41214360361188        3.88299180997674       -2.11055306369539
C           -1.48938477020534        5.05842795456047        0.15936019483350
H           -2.34873284587440        5.36773076623435        0.67480836988712
Cl           0.68235272662162        2.22141785532458        2.59662210510379
Cl          -2.15374328183723        1.49395187813235        1.72117184619920
O           -0.92817662105071        0.18496900474974       -0.44680862098381
O            0.48066198060208       -0.20970909861408        1.55627318442532
C           -1.41429760696862       -1.96870491606274        0.30853859794304
C           -0.03193594001184       -2.24522929570630        0.45349514049430
C            2.21274645091239       -1.40682874874725        0.59621857567272
C           -3.12978875172038       -0.50003462338995       -0.46835303471307
C           -4.12647264782697       -1.42503824029049       -0.21267011025780
C           -2.41205141121583       -2.93026179079844        0.57263457294665
C           -3.72944754948657       -2.65866155660291        0.35155991962038
C            0.50890902913049       -3.52338501154128        0.19459101315624
C            1.85267540503293       -3.70762905055907        0.07322562695269
C            2.75169042166376       -2.61028929413076        0.19319663635185
H           -2.10993357086431       -3.87152650639855        1.00062239090177
H           -4.48746735070041       -3.39071490941206        0.57984472798605
H           -0.17253796960324       -4.33875714179587        0.01673556534156
H            2.25340130752546       -4.67700560123368       -0.17370395645139
C            4.18194053577470       -2.78956262717029       -0.07333109374323
Cl           3.16517124609983       -0.04254203889805        0.99212374550674
N           -1.83580010066407       -0.75353868451775       -0.18582080613200
N            0.88268473523100       -1.26036149727816        0.79262755072441
Cl          -3.44041583805934        1.02077584466711       -1.16234117848519
C           -5.54485729862648       -1.16539362527150       -0.49277185468608
C           -6.49255212878231       -1.41052500410227        0.49913835595612
C           -5.97109355039521       -0.71261407206271       -1.73893721309218
C           -8.25022391950274       -0.73088254474500       -0.98430602644042
C           -7.31556393590501       -0.49947684286986       -1.97985156373423
C           -7.83461311943768       -1.18750838291342        0.25550976362436
H           -6.16762822600451       -1.75057620021083        1.47130292988561
H           -8.55871516127032       -1.36877747776963        1.03588817794173
H           -9.29886791393847       -0.55776592448561       -1.17428536800533
H           -7.63569972586039       -0.15186167657653       -2.95081574224537
H           -5.24936254473677       -0.54689624630019       -2.52299673440955
C            4.84613701794380       -3.91274852078161        0.41869387897178
C            4.89309095302989       -1.86862428245384       -0.84115356080312
C            6.89087001836077       -3.17852321905626       -0.59789136403986
C            6.23630964298221       -2.06527213682106       -1.09902260047043
C            6.19074156398199       -4.10144684075811        0.16135327957999
H            4.31018787029479       -4.62498430158733        1.02854156928093
H            6.69524515179653       -4.97068467194090        0.55671617230811
H            7.94127326538914       -3.32722543283378       -0.79842031146373
H            6.77519618426947       -1.34524514734453       -1.69650056589080
H            4.38794468963391       -1.00818513924436       -1.25098247444659
