65
 energy: -118.222235111204 gnorm: 0.000608746680 xtb: 6.5.1 (b24c23e)
Si          -0.15109874945842        1.03284129671562        1.48811064408912
O            0.52333364801704        2.29851056094422        0.75765332779862
C            0.64338057610791        2.70670241895994       -0.59009603689627
C            2.06542950066356        2.48090198276371       -1.03533420395789
H           -0.03776648925203        2.11872332649084       -1.20961517226183
C            3.11525055896361        2.87981895568364       -0.21700878180792
C            2.34326847497669        1.85579841501925       -2.24288175003086
C            4.42480035126792        2.66597890974362       -0.60755441928002
H            2.89526587296779        3.33741001268892        0.73594330548542
C            3.65415416963294        1.64670311742046       -2.63582880716195
H            1.52903685222147        1.53044932730888       -2.87496406529473
C            4.69669548860481        2.05431878486503       -1.82021222899149
H            5.23548629209117        2.97451598630268        0.03604884037521
H            3.86245139405112        1.15909638729948       -3.57757428971784
H            5.71943097644137        1.89066365694747       -2.12725638483719
C            0.25566832441868        4.19294831007068       -0.67737209938710
C           -1.14823605518146        4.36448828204555       -0.36907019777691
H            0.46529120023773        4.55859659895541       -1.68636309792429
H            0.85533491875948        4.75734220312491        0.04049414467114
C           -2.31086483097667        4.45500914105167       -0.10151647374751
H           -3.32723330414716        4.55614170732571        0.13784692688832
Cl           0.65502669084839        1.56210096187494        3.33713332427915
Cl          -2.11339445063304        0.95974142509995        2.12623127834447
O           -0.73646452325206        0.36227991920819       -0.27476993961100
O            0.62534140501390       -0.47630573575882        1.63352375323141
C           -1.21264166751610       -1.90682139372774       -0.08885324030988
C            0.16759292703934       -2.19661965180588        0.05110457354184
C            2.39261128278409       -1.38538492323443        0.44492606310500
C           -2.91737184464854       -0.30629862995258       -0.56192632609852
C           -3.91106272475224       -1.26904846473482       -0.56518682665980
C           -2.20512055486701       -2.90877152588738       -0.09812482244943
C           -3.51787153091823       -2.59840801132090       -0.29712219180791
C            0.73814287634602       -3.38123716995704       -0.46146754042468
C            2.08792594412828       -3.52356977112131       -0.57264794066419
C            2.96209068905460       -2.46680833820664       -0.18949038791502
H           -1.90626202991681       -3.92293465717023        0.10806627537541
H           -4.27388551196217       -3.36697451887884       -0.27499076537304
H            0.07656570994033       -4.14522683516189       -0.83522552667726
H            2.51369280156077       -4.41331196742467       -1.00653020731383
C            4.40434826133779       -2.57089424732196       -0.43357241390687
Cl           3.31177389874356       -0.12693167963591        1.14619069494824
N           -1.63169251621227       -0.61279965962480       -0.29954432350481
N            1.05362803230738       -1.29661817010402        0.62902921745698
Cl          -3.22290191564898        1.33897803658150       -0.88466718010984
C           -5.32443323274269       -0.95050882531495       -0.80650995955058
C           -6.28715162667584       -1.41745067404288        0.08634025740493
C           -5.73071176463486       -0.21799279463516       -1.91885330559711
C           -8.02167347927590       -0.40700766435911       -1.22562538977152
C           -7.07169864959095        0.04828881969313       -2.12480577295411
C           -7.62541171102961       -1.14058401429554       -0.11961753330484
H           -5.97616841481213       -1.97420748669093        0.95786690135015
H           -8.36147075497931       -1.49594632271395        0.58614686420333
H           -9.06746895395206       -0.19196745617016       -1.38651351901362
H           -7.37709178165159        0.61356956508761       -2.99283525778670
H           -4.99649406922133        0.12530655850375       -2.63071997299203
C            5.07570123181219       -3.75464302674466       -0.13115322503157
C            5.11922738342200       -1.51120189251446       -0.98865391896586
C            7.13889423880296       -2.80758502006556       -0.90502666954157
C            6.47596557665779       -1.63316774328501       -1.22156173050873
C            6.43384113043003       -3.86819962599489       -0.36073982485321
H            4.53315156283711       -4.57706433957380        0.31148557602342
H            6.94478466685158       -4.78630733087318       -0.11102537827105
H            8.20008612067808       -2.89702951207253       -1.08302296623633
H            7.02001459064623       -0.80673859117115       -1.65416644197833
H            4.60573551724367       -0.60028299622413       -1.25438846031764
