65
 energy: -118.219582773384 gnorm: 0.000442109373 xtb: 6.5.1 (b24c23e)
Si          -0.47123119605863        0.99044453327744        0.61353626588977
O           -0.19297523181790        1.91480184147570       -0.68354167239219
C           -0.01289244878775        3.30935759973741       -0.77126721678839
C           -1.25260807607267        4.05365971957121       -0.34814350664374
H            0.82525925663906        3.60316856209317       -0.12642701399321
C           -2.50471646374514        3.54640615315848       -0.66619868347043
C           -1.15736627769165        5.24528010351495        0.35573011373355
C           -3.64958608217247        4.21560332798596       -0.27380954746997
H           -2.57459357112741        2.61326124219251       -1.20540575178698
C           -2.30292922677745        5.91873126608963        0.74010317154643
H           -0.18428833308631        5.63508832023112        0.61642680067462
C           -3.55017661722520        5.40442605862422        0.42844105295686
H           -4.62005803404653        3.80619891370001       -0.51363151856939
H           -2.22148719456584        6.84196996347096        1.29464191490931
H           -4.44375355215003        5.92622877616029        0.73844758224704
C            0.32240045142639        3.63169091560469       -2.23852237127432
C            1.54495317922631        2.98451831185786       -2.66129587478968
H            0.41846155371161        4.71493208344388       -2.34903547057953
H           -0.50167817491220        3.28104322970690       -2.86472630730026
C            2.55141106562533        2.43588247455216       -3.00473756784676
H            3.42973949188482        1.96503407889091       -3.33270794533505
Cl          -2.28347706160561        0.51881953832759        1.50633271679575
Cl           0.01834789984620        2.42647648473303        2.13813686532156
O           -0.73551833534683       -0.30078726404391       -0.69274516361988
O            0.77205679610551        0.00317992031886        1.25731310791280
C           -0.16957955630058       -2.42376983531426        0.10351325249128
C            1.19720952767009       -2.05505934738631        0.17319641391562
C            2.84824939263091       -0.31646462004126        0.28915961777043
C           -2.40478950497666       -1.88712348089654       -0.54062948827188
C           -2.86979420483014       -3.15006404921741       -0.22175933365778
C           -0.61547296881467       -3.72488744230222        0.41721376731203
C           -1.92761740175957       -4.07103414859961        0.29241913273264
C            2.23650378336956       -2.96110241298656       -0.12770250202320
C            3.52286528741981       -2.53679593270976       -0.26947413328348
C            3.85669349604905       -1.16052419087787       -0.12789509429759
H            0.10235539738774       -4.42670264368616        0.80805565797773
H           -2.26402390257140       -5.05980862873696        0.56009319208618
H            1.97638802305025       -3.98943505170637       -0.31692857156255
H            4.30052487958632       -3.22947643458909       -0.54679786891553
C            5.22509167511660       -0.69973195912281       -0.38086755376620
Cl           3.10216907861699        1.32286449725846        0.68828819010354
N           -1.11682353740911       -1.53216042618191       -0.35326063700932
N            1.59210357611103       -0.76959889424115        0.50072095233359
Cl          -3.40588099998067       -0.68668909572309       -1.20460268339599
C           -4.27433482700753       -3.54909719744957       -0.38374394189314
C           -4.93214547138371       -4.16510698588195        0.67953252893023
C           -4.95720934064828       -3.35886404231774       -1.58252129607520
C           -6.92483573052745       -4.36177740747413       -0.64011615150260
C           -6.27299497655422       -3.76476994808978       -1.70632249172716
C           -6.24991681511562       -4.56169049981252        0.55275697159276
H           -4.41187044600716       -4.30611991687208        1.61541100220156
H           -6.75272083456818       -5.02635987757313        1.38788965951162
H           -7.95429188946683       -4.67192735581363       -0.73865497171080
H           -6.79217062563175       -3.61530895777179       -2.64130806490278
H           -4.44991500384655       -2.91146746513871       -2.42261385978259
C            6.30677863380917       -1.44261970360342        0.09163928229335
C            5.47525589564552        0.46206076976121       -1.10942529088177
C            7.84051206208273        0.13452226735368       -0.86565590973068
C            6.77257389272185        0.87294538516731       -1.34884551975104
C            7.60252661496301       -1.02436456472791       -0.14547589598827
H            6.12816959366214       -2.33560371775770        0.67225761909561
H            8.43058061909776       -1.60315423837454        0.23632530113549
H            8.85320881945447        0.46065309567238       -1.04920136687569
H            6.95269827998317        1.77467142269542       -1.91532645779685
H            4.64728969168751        1.03313088040316       -1.49674443680517
