65
 energy: -118.222222577343 gnorm: 0.000300474959 xtb: 6.5.1 (b24c23e)
Si          -0.31452149175810        0.85365295728168        1.38313170176099
O           -0.36505022285103        2.23110188504027        0.54614805542644
C           -0.81357511328681        2.58048563607256       -0.74234655249112
C           -1.86135441264887        3.66149984531235       -0.64623028002851
H           -1.23891307379602        1.70193591637527       -1.23506426574100
C           -1.90681813068839        4.51415507237110        0.44729091393156
C           -2.78923246041286        3.81178087376120       -1.66941611607258
C           -2.87253998010523        5.50317000135373        0.51751425829826
H           -1.19359248239613        4.38342871283354        1.24644945668116
C           -3.74932976970091        4.80471007929678       -1.60020607392649
H           -2.76081240697490        3.14298936200255       -2.51884135067649
C           -3.79309452851582        5.65214897973895       -0.50543975166834
H           -2.90632624993287        6.15811404539466        1.37551145564902
H           -4.46912665102819        4.91315882060192       -2.39859612073263
H           -4.54735013718866        6.42327218283273       -0.44907307023249
C            0.40072593096677        3.06774132046350       -1.56037151787652
C            1.22747650738795        1.95282964897642       -1.96555804675648
H            0.04723059804315        3.60045482322845       -2.44701211253119
H            0.97866930613702        3.75600108284752       -0.93861282761545
C            1.87274068744709        0.99907101419412       -2.29289515324628
H            2.44919894729318        0.17790386986076       -2.60001836812439
Cl          -1.94446286158231       -0.07644755537971        2.26981437278915
Cl           0.29534995305497        1.86864914524770        3.11121353892777
O           -0.64899897842542       -0.11067778093060       -0.23834897314602
O            1.08180976812411       -0.11265556049692        1.54360733699857
C            0.01076944269280       -2.33084637989918        0.01394463314122
C            1.37487592167237       -1.94735411427641        0.05114742542562
C            3.02967120858651       -0.22745056963522        0.31366150749418
C           -2.27548629259461       -1.73396562011440       -0.32760442048309
C           -2.70265219009265       -3.04609555527394       -0.24188538424345
C           -0.39848225064359       -3.67912395966117        0.09418609070508
C           -1.71314742839036       -4.02591372988078        0.00078739970484
C            2.38756916712990       -2.77236447547456       -0.48555247547220
C            3.65631193383613       -2.31176027417878       -0.66524251952698
C            3.99502557204095       -0.97076398289768       -0.33048714216892
H            0.35144822811224       -4.42788867109146        0.28711462873115
H           -2.01729037939436       -5.05632537064683        0.09153707087041
H            2.11484833821165       -3.75903408696651       -0.82150326278652
H            4.40932825795144       -2.93649676036325       -1.11732207035271
C            5.32569674141785       -0.44327407303508       -0.64983109212348
Cl           3.32789603409583        1.32514104694483        0.95453755474421
N           -0.98008168928704       -1.39402649220829       -0.17633830613597
N            1.79637189298714       -0.72835879041437        0.56167169510449
Cl          -3.34159611650971       -0.43716772804719       -0.62393864265615
C           -4.11462281761476       -3.43191896309931       -0.35887851880558
C           -4.67264677831088       -4.26411028228821        0.61003738758003
C           -4.90601723817806       -3.00735790236546       -1.42329092710033
C           -6.78212648099811       -4.20962674078685       -0.52930085659508
C           -6.23014481703146       -3.39634285754394       -1.50496573581624
C           -5.99873162951918       -4.64385352028372        0.52723945295155
H           -4.06763381423669       -4.58699330152191        1.44427168105655
H           -6.42346461337926       -5.27777235821298        1.29132935826382
H           -7.81862903193170       -4.50507308952282       -0.59243016270950
H           -6.83460014504985       -3.06266243678523       -2.33529041903381
H           -4.47754234593384       -2.38853809527559       -2.19608655919907
C            6.45709066755011       -1.21148799202682       -0.37823210484002
C            5.48338882062504        0.80180440466465       -1.25629556231450
C            7.86576428763543        0.50149587315123       -1.29043243071427
C            6.74586271166721        1.26582616980045       -1.57442812119236
C            7.71716848940715       -0.73827273728531       -0.69102787778578
H            6.34631034439705       -2.17104816122264        0.10515703090551
H            8.58645010147811       -1.33795573865423       -0.46495055076810
H            8.85047486856881        0.86945866240192       -1.53651691804885
H            6.85631798126813        2.22928812266998       -2.04933511829442
H            4.61395430061135        1.39416715301594       -1.49655324710188
