65
 energy: -118.221110140311 gnorm: 0.000410777943 xtb: 6.5.1 (b24c23e)
Si           0.35003277318638        1.35155036075068        0.54098367536750
O           -0.34939859741136        2.70745130412350       -0.06816333950676
C           -1.61298889340577        3.26025015295153        0.18992491095033
C           -2.69290462641227        2.61817804074119       -0.64505567458181
H           -1.84863692987013        3.12452888236387        1.25526434769924
C           -2.39497768482384        2.05580776890034       -1.87777038389458
C           -4.00325716264052        2.58805968153947       -0.18361123392862
C           -3.38503968995868        1.43942514958010       -2.62240469278856
H           -1.37709363403850        2.08505756460889       -2.23389493765798
C           -4.99549500911188        1.98316868113339       -0.93402122273709
H           -4.24078628900656        3.02625953519384        0.77595604547770
C           -4.68635113643354        1.39884444861464       -2.15142665294002
H           -3.14026732829655        0.98968145741662       -3.57404178343388
H           -6.00972262966450        1.95691200392621       -0.56231709931287
H           -5.45896397368380        0.91551855093444       -2.73246450300499
C           -1.54102045598278        4.76989948901429       -0.11714846304946
C           -0.65805107089036        5.43704702777177        0.81453487468460
H           -2.54477598487519        5.19780128955353       -0.05015220124673
H           -1.16438498608305        4.89717875467846       -1.13507216165110
C            0.07745294791288        5.94893474290124        1.60697711931117
H            0.72311271696727        6.40894333962908        2.29339737582493
Cl          -0.17728513765343        1.51417309191427        2.51235347577352
Cl           2.08407471665393        1.86982687543277       -0.45522524719576
O           -0.60130340427773        0.29224272947629       -0.40164904442391
O            1.23682731358694       -0.26375143345234        1.18293358019447
C            0.08069143795447       -1.98703937790819       -0.63444530274118
C            1.47771605265940       -1.74394575891637       -0.60425972804535
C            3.35669973364627       -0.69418869408078        0.41898785427192
C           -2.12713780436324       -1.37417598772340        0.08827720477028
C           -2.64446947075062       -2.60563578687879       -0.22532444298246
C           -0.45004636321214       -3.23343549598148       -1.02602229379126
C           -1.76897365074949       -3.53301317995237       -0.85714728546406
C            2.37361957883888       -2.39502076113580       -1.47932245451636
C            3.71563737904755       -2.15844964906292       -1.42478491769186
C            4.25042008349446       -1.27672182925277       -0.46287133961720
H            0.22573163780215       -3.97621167290414       -1.41625151194975
H           -2.16276972020208       -4.48852497894861       -1.16248007192212
H            1.96631318736931       -3.04113836829994       -2.23853979915313
H            4.38479224247814       -2.62397665990659       -2.13062977552587
C            5.68636906552048       -0.97888666213680       -0.43111015211226
Cl           3.86497043162092        0.23819984914384        1.74635447031723
N           -0.84509606170289       -1.03851088359762       -0.21801883158345
N            2.02905551083692       -0.90402340123287        0.33476766072687
Cl          -3.01433215251874       -0.17740946930991        0.92517832489341
C           -4.03832325552287       -2.97609644969413        0.05550773382540
C           -4.32560348290955       -4.20021691214700        0.65472662344596
C           -5.08874475858024       -2.13753402950620       -0.31145986506297
C           -6.67386523746825       -3.72514253245690        0.54311865056774
C           -6.39634694581782       -2.51334122695930       -0.06790308810179
C           -5.63518212883438       -4.56781795933029        0.90213143280056
H           -3.51543228721122       -4.85221558881798        0.94682953640110
H           -5.84613552761501       -5.51442380819457        1.37722820207797
H           -7.69634348547119       -4.01339134665317        0.73605973900455
H           -7.20367918818548       -1.85772355751904       -0.35850674528107
H           -4.87897782703584       -1.20105707757122       -0.80530616641006
C            6.62118925433985       -2.00970101690104       -0.49112692735161
C            6.12936107046988        0.34195418516362       -0.39108935555530
C            8.40847375907467       -0.41142738201803       -0.43803169755316
C            7.48320583375338        0.61913110379936       -0.39588775327442
C            7.97417726480638       -1.72559174405901       -0.48769550660346
H            6.28294269367106       -3.03545627560864       -0.51696329205551
H            8.69204593244369       -2.53178366679944       -0.52357240437534
H            9.46552463857700       -0.19103615664577       -0.43669205798957
H            7.81861279714111        1.64506075974051       -0.36992423757865
H            5.40741991880897        1.14390696058442       -0.38602719273163
