65
 energy: -118.223246210369 gnorm: 0.000973025686 xtb: 6.5.1 (b24c23e)
Si          -0.43982618885265       -1.49319874590602       -0.64027788318763
O            1.14662997689606       -1.48871966901235       -0.26601427851175
C            2.00701605666322       -2.51833402092998        0.15176167005351
C            2.82690896395425       -2.08340748443013        1.34127536232728
H            1.41004897022181       -3.39850311017684        0.42162569256761
C            2.90577303326099       -0.75311773138835        1.72404980382606
C            3.55279940735609       -3.03291988661412        2.05266861220182
C            3.70986910344159       -0.37037040660195        2.78405376616600
H            2.32582157491923       -0.01408118919679        1.19482860276089
C            4.35452158936715       -2.65170479401004        3.11215496412316
H            3.47976527958593       -4.07548911110080        1.77860819573207
C            4.44179274129303       -1.31750287360352        3.47665681992066
H            3.76295281969559        0.67201557006404        3.06386494426515
H            4.91295145144962       -3.39804317038076        3.65785779035471
H            5.07248294193931       -1.02075250299192        4.30166924758427
C            2.94857841236120       -2.90039319528774       -1.01230994819753
C            2.18315731001211       -3.31659813737030       -2.16744765099189
H            3.56526864496573       -2.03610572120288       -1.27538766602452
H            3.60367442973557       -3.71085848904519       -0.68629857556915
C            1.49894223689886       -3.62988814561202       -3.09719831106047
H            0.90505202680942       -3.90759797453526       -3.91590255018451
Cl          -1.30241733076326       -1.94088287138440       -2.44067591249030
Cl          -0.96657557121516       -3.33468158513067        0.30085291470323
O           -1.34071045718854       -0.70524946054497        0.59389236921973
O           -0.20098500267164        0.18361517462317       -1.41666916805525
C           -1.46683787676366        1.66509351218969        0.50410661714647
C           -0.08932535005499        1.84088631570732        0.22037882050179
C            1.82671118392781        1.23518776283465       -1.06839241907920
C           -3.42767519631950        0.27947622911431        0.42133986699176
C           -4.26661937208882        1.35199171088095        0.62561680679891
C           -2.30568971249866        2.75595002958923        0.81342458524991
C           -3.65867575825523        2.61234152862822        0.87697515178327
C            0.69037576039833        2.84421957611336        0.83601034468127
C            2.01151429306189        2.99343674748235        0.53675019035269
C            2.63076269795565        2.16324732814723       -0.42738595581718
H           -1.85459089307878        3.72719245970689        0.93175780795289
H           -4.29358703796839        3.45574562108809        1.09459060713354
H            0.22854252031916        3.45200129171282        1.59611688439577
H            2.61230879189101        3.72928273705587        1.04680985825771
C            4.06491333827146        2.29224574452439       -0.70752984560597
Cl           2.37215492683563        0.30669561575121       -2.38889249894885
N           -2.07831972982564        0.42372578476368        0.44347372197916
N            0.53025282630445        1.07512869948188       -0.74375658724042
Cl          -3.98667037244509       -1.30253162883504        0.10409234369444
C           -5.73148042124064        1.24327925218646        0.58963349702523
C           -6.46568354133750        2.16220588269561       -0.15814284176699
C           -6.40948282163768        0.26772450956422        1.31666118336917
C           -8.51187772629523        1.11365857901259        0.52331945702529
C           -7.79012687539242        0.20717948555843        1.28241303121521
C           -7.84556106213135        2.09212088994259       -0.19573810007323
H           -5.94634314139403        2.91732066641717       -0.73026546938270
H           -8.40276360890883        2.80269295889781       -0.78851288189086
H           -9.58982870329999        1.05995847076949        0.49470204424710
H           -8.30592506650956       -0.55035693702767        1.85318811593999
H           -5.85434186803329       -0.42774478846643        1.92539164779549
C            4.62427398209987        3.54969872228022       -0.92530822655883
C            4.89441123751978        1.17271107570365       -0.70802303370679
C            6.79634512378091        2.56191807995503       -1.16886565235770
C            6.25021305767912        1.31010052832271       -0.93601589549167
C            5.97999085358814        3.68074362283401       -1.16079283917868
H            3.98685545448048        4.42190254627277       -0.93206358803782
H            6.40142298222134        4.65907029581353       -1.33883202961899
H            7.85541627770272        2.66560599294902       -1.35113368682682
H            6.88510808961064        0.43673023440254       -0.92764938926584
H            4.47842131768991        0.20029139774126       -0.49512645422227
