65
 energy: -118.225103968148 gnorm: 0.000731813233 xtb: 6.5.1 (b24c23e)
Si           0.11143383159821       -1.34268387025245       -0.44026526969972
O            1.57743912884232       -1.04699540460176        0.20360874538348
C            2.37383295884633       -1.87525272918838        1.01971611533845
C            2.87308547271035       -3.08881174967717        0.27962528471916
H            1.77979707900688       -2.19231094586796        1.88507225235249
C            3.18068193015433       -3.00860477495276       -1.07070693083006
C            3.04696441853902       -4.29257734676539        0.94851167275242
C            3.64283446950318       -4.12195617980805       -1.74909172150423
H            3.03675921163247       -2.07610494706810       -1.59571778319237
C            3.51720767949455       -5.40291255053445        0.27165043248053
H            2.79653841157483       -4.36136425460045        1.99716437761902
C            3.81414543407718       -5.32038804164741       -1.07850209712091
H            3.86560520261680       -4.05219188584880       -2.80355442600415
H            3.64231355563357       -6.33824877988419        0.79734012115377
H            4.17196542791938       -6.19107154158167       -1.60828249860512
C            3.56724773722096       -1.02977627879768        1.50315513262978
C            3.10336203871136        0.16296137837012        2.17715751368713
H            4.17623006072498       -1.63266068126824        2.18090627967653
H            4.17424916809248       -0.75387789155980        0.63623227820405
C            2.66218930749556        1.14960476117742        2.69127725025904
H            2.30404410459541        2.01139985925099        3.16935752742923
Cl          -0.20251136292296       -2.06749848736194       -2.32840169245433
Cl          -0.28816662440309       -3.18883271419096        0.56774152835616
O           -1.15457353278173       -0.65880445301644        0.49963895542027
O            0.23923025925340        0.29577032681475       -1.30832748263328
C           -1.72755491439121        1.60666097261164        0.08535855354190
C           -0.38468555138658        2.05970817323821        0.08628356793997
C            1.86502777551890        1.81166795457302       -0.66635010879007
C           -3.30701570588703       -0.18234597901418       -0.20183816866224
C           -4.36739992681032        0.68921551055591       -0.31352823455571
C           -2.81398215668379        2.50666879748169        0.05752000864078
C           -4.09077496587660        2.07176071868196       -0.13116909960592
C           -0.00207680073687        3.27282352085897        0.69885461379505
C            1.28248419151417        3.72155548633828        0.63737745879860
C            2.27181628310677        2.98541899458384       -0.05635036852933
H           -2.60297530772069        3.56120081129735        0.12384975656500
H           -4.91107467095865        2.77002620875199       -0.16779352830303
H           -0.74581927848704        3.81596145337378        1.25809510226942
H            1.57132639390923        4.63463574914067        1.13330492083716
C            3.64494853460973        3.49581228573515       -0.14034850323190
Cl           2.90051903118350        0.90633670892087       -1.66251366377827
N           -2.05268423043996        0.26079475769389        0.06736256245094
N            0.59420071023098        1.37285692338947       -0.59959809340500
Cl          -3.45423961447579       -1.87103049509669       -0.40811766416078
C           -5.73950828960383        0.25067610975860       -0.60263386749504
C           -6.47743217982307        0.90672537238552       -1.58634310027981
C           -6.33925341952222       -0.78099334250181        0.11587699799128
C           -8.36372624598681       -0.50765681468151       -1.14523629031702
C           -7.64228954643047       -1.15425360531657       -0.15531886070374
C           -7.77753432472848        0.52450239228878       -1.85894232455559
H           -6.01761639970542        1.70269292679341       -2.15375527267963
H           -8.33527900583762        1.03277568671080       -2.63163830640628
H           -9.37973055118306       -0.80480564903048       -1.35772410174160
H           -8.09770838119837       -1.95318075160484        0.41064289085827
H           -5.78999438217964       -1.27476908723923        0.90156873118722
C            3.85975599507965        4.83328494691226       -0.47114536512046
C            4.74306394529777        2.68436352008043        0.13447598259176
C            6.23011068957993        4.52377013487612       -0.27686784094532
C            6.02434081234882        3.19785370678251        0.06731197042654
C            5.14346933880849        5.34003550060674       -0.54390981205304
H            3.01519366215516        5.46870942945061       -0.69538833146727
H            5.29709087383636        6.37514883372285       -0.81118023522312
H            7.23258735269827        4.92076999034593       -0.33264045987875
H            6.86739534086865        2.56042478590202        0.28837087253623
H            4.58443455116823        1.66229154351854        0.43603604603609
