65
 energy: -118.215795104813 gnorm: 0.000922666954 xtb: 6.5.1 (b24c23e)
Si          -0.04635325481215        0.94212919432673        0.12522436141351
O           -0.58777560349578        2.45609276802651       -0.00761580265306
C           -1.44917214466556        3.26318145103424        0.75549884243713
C           -2.46624879079305        3.91924782404283       -0.14157422539595
H           -1.95928999935640        2.65115504617280        1.50808833191738
C           -2.16374000318560        4.19821022570800       -1.46738768798586
C           -3.71105871217393        4.27263781129917        0.36417780880775
C           -3.09761684273862        4.81776498948679       -2.27905454760540
H           -1.19888686968270        3.91236527600797       -1.85762876579666
C           -4.64023226173741        4.89949297672593       -0.44643866944968
H           -3.95151815735069        4.05023723898816        1.39458443725203
C           -4.33558246901922        5.17228335900419       -1.77009233580481
H           -2.85719837031267        5.02535462992713       -3.31169354552449
H           -5.60651900262305        5.17091404248022       -0.04576877725461
H           -5.06405582785083        5.65708287722765       -2.40360518536536
C           -0.59227145607970        4.32911997952172        1.46956257416645
C            0.35592159193390        3.69063067893419        2.35631460590087
H           -1.24689718985676        4.99825367565409        2.03327367092640
H           -0.05332915329223        4.90619315246166        0.71321591604927
C            1.12924552148459        3.10315168510563        3.05514307704676
H            1.80908838750022        2.61010068571834        3.68353405767222
Cl          -1.34629826284335        0.37214726622068        1.78138977001212
Cl           1.41353387247779        1.49129433222553       -1.36262197971848
O           -0.63852322309038       -0.24227278635509       -0.96559476465389
O            1.09258347530437       -0.05688240001349        0.97850140689506
C            0.14617881050332       -2.35935341531428       -0.29022209114333
C            1.51602790905747       -1.96250908963613       -0.31076979353267
C            3.25230568216632       -0.38979579942473        0.20231834374324
C           -2.20265668467497       -1.86572726811121       -0.43054056324000
C           -2.56021106031350       -3.16582727315594       -0.14280639960359
C           -0.20405527839504       -3.70506887439493       -0.06086699936842
C           -1.50583628662268       -4.09973220129569        0.02907590908143
C            2.50423259140575       -2.79722942396981       -0.87058126179801
C            3.80870424863113       -2.40513961843638       -0.94272587830876
C            4.21734613513041       -1.15049040583497       -0.42716645743656
H            0.59183704126157       -4.41091155964726        0.11172152556080
H           -1.75611431055099       -5.12745506371012        0.23657866426939
H            2.18948257150988       -3.72742485366505       -1.31435751901400
H            4.54320941733341       -3.02789510840564       -1.42723178557223
C            5.60562436966481       -0.69870330947020       -0.56586759391827
Cl           3.61126104163116        1.03832241651082        1.04712466745233
N           -0.90643273879370       -1.49374891167324       -0.52777299062490
N            1.96937782654269       -0.79569886316704        0.26971594411136
Cl          -3.33792378181206       -0.62346590401086       -0.68348450183781
C           -3.95565129661892       -3.60273197406715       -0.00347317106715
C           -4.32300022845405       -4.36411672694396        1.10477287836357
C           -4.91475130578978       -3.30795413566395       -0.96935641555071
C           -6.57465844746330       -4.50047390457626        0.29079626668989
C           -6.21389577448085       -3.75668008704677       -0.82045055439481
C           -5.62512864389910       -4.80296481884026        1.25271646333013
H           -3.58704630855918       -4.58685403941729        1.86315012210872
H           -5.90045755844973       -5.38181912721696        2.12182095733302
H           -7.59140420139891       -4.84491725236807        0.40595384640337
H           -6.94862830216837       -3.52580392614908       -1.57735005343183
H           -4.63582620998088       -2.74531654799495       -1.84614183616072
C            6.65684833444107       -1.56245822580429       -0.26529094176724
C            5.88996476211171        0.58142150945888       -1.03790990347227
C            8.24262507349430        0.12987057930536       -0.87564702417478
C            7.20185716921263        0.98821344347863       -1.19155280197532
C            7.96664252038766       -1.14640703087847       -0.41381695881573
H            6.44282450430760       -2.55310479785074        0.10866904901693
H            8.77465897126113       -1.81956102480820       -0.16784217686540
H            9.26628653712903        0.45283904873452       -0.99264442189288
H            7.41366137633961        1.97958565735476       -1.56302555909328
H            5.07988227116316        1.24017792818074       -1.30976255669350
