65
 energy: -118.220232940982 gnorm: 0.000465922088 xtb: 6.5.1 (b24c23e)
Si          -0.16488703187831       -1.73670691366318       -0.67785357457846
O            1.40280458593964       -1.67508383117561       -0.26265854348741
C            2.28330294175484       -1.96240082086111        0.80296527604047
C            2.01297988322278       -1.02506067820209        1.95603866446303
H            3.27795677771374       -1.73841181950473        0.38758310729224
C            0.79074136851772       -1.05106224319446        2.61703511548008
C            2.96755552989797       -0.09004190027088        2.33517357204213
C            0.52093466171258       -0.13689270651805        3.61964516731706
H            0.04394704420736       -1.77789348856736        2.33889926603027
C            2.70203016497061        0.81265548433536        3.34987388967862
H            3.92595919498228       -0.06624104059901        1.83605727436206
C            1.47375783867766        0.79827245749406        3.98721767127597
H           -0.43630276389024       -0.15993374838645        4.11928725058890
H            3.45581768562772        1.53063516034912        3.63811589224437
H            1.26203313589568        1.50891575478927        4.77271622921822
C            2.27771565569466       -3.43548297337141        1.23928806027639
C            2.61173581028303       -4.28910960340221        0.11945517303797
H            3.01681735702762       -3.55455868934214        2.03670856260190
H            1.29305620749668       -3.71330192567636        1.61630470004146
C            2.88806892246685       -4.94164524538235       -0.84430010900652
H            3.11333126814292       -5.54513422830366       -1.67178247194749
Cl          -0.60909749469943       -2.40105750262165       -2.54589283288744
Cl          -0.82897770429968       -3.46791300477694        0.35915561549843
O           -1.27218645217182       -0.90543687749335        0.33254808229862
O            0.09198307567343       -0.04212480630487       -1.54013177815442
C           -1.22851739121994        1.47868203725682        0.30882991896191
C            0.17078601090066        1.59044621112787        0.11786156053891
C            2.12302192213390        0.94297112607247       -1.08956093454309
C           -3.25353036276039        0.22833978181093       -0.02356289073241
C           -4.04266091638379        1.33559094609192        0.17993409569726
C           -2.02641818536087        2.59768598387266        0.62576750228860
C           -3.38599480899002        2.53545884470936        0.57309470896070
C            0.95981841184457        2.52673390050325        0.81758446186681
C            2.29694755197617        2.63550664213636        0.58187871022981
C            2.92866131338578        1.82896659224824       -0.39251034285618
H           -1.53169355203560        3.52914018662506        0.84633367756455
H           -3.98774222834958        3.40019389808973        0.80059230930071
H            0.48989667418530        3.11411527417211        1.58807138983232
H            2.89887014203552        3.32204469934816        1.15467537507264
C            4.37018180219853        1.95844629317891       -0.62890947634170
Cl           2.68958828173664        0.00529028028929       -2.39358518812070
N           -1.90427244826933        0.28269972945544        0.12336831824051
N            0.80586481756365        0.82972000644882       -0.83718345839021
Cl          -3.87072984342024       -1.29362303533172       -0.49816343387745
C           -5.50184496504899        1.32781566700222        0.00601258483882
C           -6.10512044603044        2.34121409599500       -0.73669930138510
C           -6.30326614098151        0.35498246296801        0.59797020016016
C           -8.26650613422176        1.39185506097028       -0.31592227219230
C           -7.67591404760178        0.39057179292881        0.43698226803650
C           -7.47706455058974        2.36765755500538       -0.90150255015980
H           -5.48894734710781        3.09519726524161       -1.20448863696738
H           -7.93179515244039        3.15132767409335       -1.48919093602519
H           -9.33829825279769        1.41359280424800       -0.44384640400589
H           -8.28838300095182       -0.36642997455309        0.90354334341015
H           -5.85144529707324       -0.41577595723249        1.20196826566203
C            4.94441803034408        3.22778127869114       -0.69784472426126
C            5.19683157715864        0.84183459723011       -0.74151072824817
C            7.11720167122118        2.25862198658551       -1.00149955003944
C            6.55828435062330        0.99361532673384       -0.92393027875206
C            6.30503559867515        3.37497943725527       -0.88867579904919
H            4.31297127963322        4.10130834470553       -0.62708763515281
H            6.73362159054329        4.36437879070296       -0.95089708915929
H            8.18049104914900        2.37390887074229       -1.14820450879080
H            7.18711422140553        0.11934995955180       -1.00379620785548
H            4.77482211195214       -0.14815824631651       -0.66818460348384
