71
 energy: -124.556720120691 gnorm: 0.000817603266 xtb: 6.5.1 (b24c23e)
Si          -0.22338381957282       -1.77802976370017       -0.55909668368550
O            1.37050578222705       -1.73651725285331       -0.26652085810506
C            2.35450620503094       -2.09681795690002        0.67723384756721
C            2.26948156013177       -1.18851662450801        1.88116543679027
H            3.30305568129606       -1.90411839702964        0.15250668494721
C            1.11759586132538       -1.14932797501997        2.65733589223612
C            3.33124936158912       -0.35267620965291        2.20213835950225
C            1.02798986551559       -0.27772672470315        3.72763199115977
H            0.28616205824963       -1.79315012924297        2.41837873958662
C            3.24415590931504        0.51095094920291        3.27979116852558
H            4.23424372924690       -0.37580981075671        1.60900860803980
C            2.08998907205244        0.55352603707739        4.04272790990290
H            0.12621695689833       -0.25214710083690        4.32132122644694
H            4.07992038982320        1.15188179111836        3.52068767806664
H            2.02125090538499        1.22641612764580        4.88589902803021
C            2.33407499991540       -3.58157986214037        1.07322637243927
C            2.45389038792371       -4.41155392461342       -0.10614378070914
H            3.17448041365156       -3.76280888461439        1.74934974222314
H            1.40209685162253       -3.82226491816548        1.58542561399942
C            2.54789792362345       -5.04384176682831       -1.11717782209954
H            2.61562741353095       -5.62320480996647       -1.98856615324921
Cl          -0.91539287269942       -2.51154973218327       -2.33045034000375
Cl          -0.82966041397518       -3.46037527777481        0.60466632075730
O           -1.16631516199858       -0.83211118321481        0.53430435820352
O            0.01303965956290       -0.16828077514998       -1.54790146257546
C           -1.27777191048398        1.49545530136191        0.10782474491132
C            0.15273126523051        1.53886593903519        0.02996065599097
C            2.07649352679854        0.79560716387795       -1.17824788697968
C           -3.23966178553776        0.09391114447916        0.07562089698198
C           -4.07515404054864        1.18148326455154       -0.03575365497092
C           -2.10705589570796        2.62760964570855       -0.01769203813941
C           -3.47091632309183        2.46281277457794       -0.06730388445353
C            0.98114966948257        2.35375012071556        0.82854237280517
C            2.32927556040527        2.38679199940396        0.57539249482597
C            2.91564535274002        1.63744702276152       -0.46895398782265
H           -4.10946490048130        3.32442083163453       -0.18017611977182
H            2.97490106227886        2.97054653451480        1.21214907969108
C            4.35333481096723        1.76308567240306       -0.72917301071493
Cl           2.58876740838107       -0.15293423706501       -2.49738757616881
N           -1.90132994652431        0.26016372845434        0.20629103685251
N            0.76056429237447        0.73443923648927       -0.91198517379265
Cl          -3.78684497860225       -1.52349388310879        0.01810303437580
C           -5.53392657191846        1.05443940806815       -0.15375289846654
C           -6.21312047122493        1.76063963980208       -1.14449129818906
C           -6.26304226012943        0.26768886976782        0.73490768348958
C           -8.30461566261593        0.87845205382462       -0.36998959188031
C           -7.63829987470973        0.18353767279171        0.62580384933791
C           -7.58771567016159        1.66708320598500       -1.25442703374205
H           -5.65478173645667        2.36374520673770       -1.84532605426225
H           -8.10162240290924        2.21007268522174       -2.03382620819506
H           -9.37848509733553        0.80698588333972       -0.45565879721285
H           -8.19350271649215       -0.42641984286565        1.32275127400389
H           -5.75107339747131       -0.26154979278174        1.52308300273875
C            4.93847113688135        3.02985144568836       -0.71298629483523
C            5.16942662995157        0.65412794353311       -0.94576995642427
C            7.09660133440410        2.07383576704999       -1.13648741554930
C            6.52800935824479        0.81097132486581       -1.14529151278128
C            6.29568035822235        3.18305953478896       -0.92050554512079
H            4.31621488320597        3.89955559756744       -0.56022879785934
H            6.73080458203804        4.17160916240044       -0.91463387944556
H            8.15769485791858        2.19290092955811       -1.29579243916272
H            7.14757340860655       -0.05888201229389       -1.30576199802982
H            4.74342146397050       -0.33642152592670       -0.94006594856574
C           -1.53755270753143        3.99984180952571       -0.21508560332019
H           -1.58042486745155        4.57034655674762        0.71015506074562
H           -0.50692149346335        3.95753778053297       -0.55162712112636
H           -2.12762335699131        4.53247934966411       -0.95656811376693
C            0.43726406993340        3.07465561881778        2.02383508514164
H            1.03394803677657        2.80612466534695        2.89379724958599
H            0.50523214423882        4.15312058497028        1.89483151394177
H           -0.59514786487902        2.80051539228655        2.21455092733276
