71
 energy: -124.558946111954 gnorm: 0.000176672134 xtb: 6.5.1 (b24c23e)
Si          -0.42959070367468       -1.61120634300565       -0.39082244106452
O            1.17755560375034       -1.61044662915185       -0.12831709850422
C            2.04875226656907       -2.60679690312768        0.34292045143218
C            2.98202324920225       -2.04786261283540        1.38998888173341
H            1.45866313136758       -3.42216900240065        0.78136740171619
C            2.99059021253315       -0.69835630930165        1.70926165620528
C            3.87054328977865       -2.89724653034634        2.04154042062734
C            3.88970693393923       -0.19733394460611        2.63475643897086
H            2.28111389720810       -0.03887686655148        1.23628298626529
C            4.76612876115617       -2.39799816139622        2.96838847371874
H            3.85260979881812       -3.95661423125831        1.83022368528584
C            4.78645537030792       -1.04369077583344        3.26052082645120
H            3.88739274488684        0.85884487715372        2.86302560048545
H            5.45086760712695       -3.06854064571771        3.46665728921689
H            5.49168530256711       -0.65433848077098        3.97982702907149
C            2.86001420073223       -3.17164547122034       -0.84433451726773
C            1.97367683048305       -3.71334775086998       -1.85166902611074
H            3.46403844933527       -2.37113028951382       -1.28115935867296
H            3.52839921381883       -3.95504106326924       -0.48129788774966
C            1.19762001004622       -4.12839963559352       -2.66185866237887
H            0.51992108604601       -4.49718580364418       -3.37198961547764
Cl          -1.48879119596784       -2.26196921561163       -2.02045722762221
Cl          -0.90922965201871       -3.30885167970304        0.82649869559545
O           -1.19086469013485       -0.60192446195778        0.78619739897097
O           -0.20460743647221       -0.08369609890191       -1.43699654831358
C           -1.49462593971053        1.65111331138723        0.13616000567625
C           -0.07477060482618        1.76931643664231       -0.02959574520949
C            1.84233011438117        0.97780511726799       -1.22083093477428
C           -3.36001246587458        0.16209727934311        0.47058968834630
C           -4.26803716966206        1.18128890107884        0.28566018037366
C           -2.39991565496382        2.70819632936774       -0.08110742162550
C           -3.75064466090259        2.46958160797945        0.00907126868605
C            0.73341325055249        2.73090448686862        0.61344279328747
C            2.07151700655845        2.79247724839077        0.30980517054306
C            2.66236743655101        1.92544400537961       -0.63600683850791
H           -4.44796103674735        3.27130284649430       -0.17512147571844
H            2.70808368955915        3.49073203556624        0.83054294367113
C            4.09931884781950        2.01656480200271       -0.91885192768907
Cl           2.37004666325007       -0.07109312566687       -2.45503539811339
N           -2.02852011431148        0.40872899828803        0.44689745013397
N            0.54026687574957        0.88898124105801       -0.89915628830673
Cl          -3.81471646364793       -1.46602586312415        0.69987686138128
C           -5.72047922387847        0.96480210256512        0.32370593480894
C           -6.52302183046671        1.47782295559713       -0.69337381548982
C           -6.32157168181799        0.28279823605301        1.37906098140902
C           -8.48189612315147        0.61063524306800        0.38503065057397
C           -7.69255047461639        0.10962990836566        1.40702167093563
C           -7.89282027134103        1.29571313753260       -0.66455364955738
H           -6.06441769207162        1.99706491923320       -1.52195266221074
H           -8.50286517691324        1.68743584682179       -1.46502854229515
H           -9.55195919889192        0.46863886720463        0.40683724608108
H           -8.14778607441839       -0.41858172044125        2.23146519751821
H           -5.71338256453826       -0.09445540149668        2.18591395965803
C            4.67533830171731        3.25395596453613       -1.19838748447513
C            4.91426713680567        0.88854603896884       -0.85616026101119
C            6.83577960778998        2.22861650396015       -1.37821382684581
C            6.27290701063859        0.99769727176587       -1.08267758062764
C            6.03345765824898        3.35622397986877       -1.43378647821455
H            4.04842606744338        4.13239500256178       -1.25061299749520
H            6.46785893852325        4.31873229867864       -1.66060753448418
H            7.89705909308155        2.30994878238780       -1.55925169814495
H            6.89691762663291        0.11843758499699       -1.02304981442165
H            4.48507158177354       -0.06574289171791       -0.59409702761527
C           -1.93512106399175        4.06223020133717       -0.52605469992745
H           -1.99275947375455        4.77675751446979        0.29291449228179
H           -0.91538236157490        4.03242100851103       -0.89596077216433
H           -2.58507186962023        4.42182281812966       -1.32067397680138
C            0.18784817007577        3.59307944783359        1.71139537466774
H            0.84096672797478        3.52146556030130        2.57920331343328
H            0.16060415206793        4.63800625415057        1.40826878532696
H           -0.81008504691930        3.28030693588027        2.00112003034327
