71
 energy: -124.560397171064 gnorm: 0.000222475913 xtb: 6.5.1 (b24c23e)
Si          -0.17588698540375       -1.45659750853485        0.30539599735134
O           -1.66801851275535       -1.12951323055953       -0.25792223604391
C           -2.50724687878503       -1.92539175482686       -1.06333855513703
C           -2.96808754660920       -3.16385109093742       -0.33955501873550
H           -1.95982615352397       -2.21080236086560       -1.96925814304042
C           -3.23672496814533       -3.11719527252470        1.02083056588469
C           -3.14345810359591       -4.35558600775829       -1.02853349617288
C           -3.66521440342256       -4.25031695270575        1.68805352043207
H           -3.08868789401373       -2.19428062499882        1.56112202356356
C           -3.57896035984296       -5.48643151699293       -0.36218662996840
H           -2.92137645440978       -4.39875073035536       -2.08475695330456
C           -3.83967878163137       -5.43644620115819        0.99689274269775
H           -3.85967276258726       -4.20580743414013        2.74947134029207
H           -3.70538855636753       -6.41241038739799       -0.90363134057359
H           -4.17159295299907       -6.32270856045275        1.51752439484148
C           -3.72437643724238       -1.06652310256931       -1.45346073229606
C           -3.30336179779083        0.13895328252266       -2.13248484781743
H           -4.37603661872204       -1.65503146189627       -2.10395649485883
H           -4.27586570478764       -0.80835488087723       -0.54505093126903
C           -2.90651048035214        1.13594627273572       -2.66202838426336
H           -2.58475643251319        2.00813045499226       -3.14674428008922
Cl           0.27802814588139       -2.33265289770492        2.10321912035636
Cl           0.17516196545154       -3.22675105035541       -0.86043673070775
O            1.03500328398875       -0.66221415594363       -0.63457575234474
O           -0.29633339127478        0.08825691049591        1.32722787309816
C            1.70027973109812        1.45668311649014        0.17746648440774
C            0.35017367778727        1.91713493613871        0.03804885948468
C           -1.91245330609342        1.65039191669681        0.75640956439023
C            3.20806416584255       -0.42288390954836        0.13907221708001
C            4.26589542676848        0.35430732101093        0.55691054165452
C            2.75519418317834        2.26863428969017        0.64238793664027
C            4.00475337087155        1.72247878793152        0.81008112771238
C           -0.02668103595224        3.07225843909577       -0.68120333596840
C           -1.32675329580336        3.50583959693078       -0.61674608467878
C           -2.30557804497334        2.82443224739759        0.14079584018647
H            4.81011096158051        2.33592936393741        1.18163755937943
H           -1.63117357342568        4.37299419862333       -1.18235597637711
C           -3.65913010922504        3.38031090401963        0.24738901974671
Cl          -2.95147093730687        0.73857636910383        1.74422649908164
N            1.99019098029912        0.12615763656987       -0.08465787923377
N           -0.64302751905929        1.21492660847779        0.69093876392517
Cl           3.31935471431710       -2.11011940386761       -0.08975436571906
C            5.61281788772651       -0.18873586439852        0.77684926499590
C            6.29791352114077        0.11073216173958        1.95274450137168
C            6.24168218314967       -0.96889328642564       -0.19081737900310
C            8.19155978232142       -1.15253844707576        1.19722214945265
C            7.52212817885007       -1.44445913941782        0.02025770732130
C            7.57526973689597       -0.37378234629756        2.16250938216630
H            5.81347328748618        0.70384132540101        2.71436515603060
H            8.09141394329109       -0.14440006302819        3.08305319923842
H            9.18999671277967       -1.52931146573003        1.36108564543079
H            8.00118829265986       -2.04490557453808       -0.73869815349467
H            5.73138643113617       -1.18466373940748       -1.11617515293105
C           -3.81312997271782        4.73632648280091        0.53552235470282
C           -4.79596549042899        2.60418856888537        0.03676848525580
C           -6.19816410388743        4.51358441164769        0.42908530140657
C           -6.05379479531717        3.16972979801941        0.12631694699958
C           -5.07298048489256        5.29561527137807        0.63116035666705
H           -2.93755421950085        5.34578600664317        0.70735212835107
H           -5.17775492085133        6.34485283395196        0.86512754141794
H           -7.18248016852138        4.95105232567588        0.50248246650453
H           -6.92715674467945        2.55849243924380       -0.04588295925950
H           -4.68863566208493        1.56720933187214       -0.23337310264245
C            2.52640571891342        3.68602923129097        1.07432221658926
H            2.92660372033349        4.38199063651630        0.33959100517372
H            1.47136223646924        3.89495793571342        1.21830132033087
H            3.04892861585626        3.86335067344187        2.01178328017923
C            0.93672755992239        3.76143736920167       -1.60014756793291
H            0.48895981705045        3.84205273365908       -2.58916545352788
H            1.15036960690149        4.77152514186383       -1.25615302669023
H            1.86688772154095        3.20935509148998       -1.68624243773012
