71
 energy: -124.560689664281 gnorm: 0.000304831808 xtb: 6.5.1 (b24c23e)
Si           0.38906881344280        1.73251539911271       -0.27058466267609
O           -1.21294311812229        1.67647888449752       -0.00694342069406
C           -2.09779311444164        2.45202555484437        0.77232377005503
C           -2.93103409274525        1.47175860414212        1.57065567168911
H           -1.50922536820308        3.07659434240793        1.45902389630900
C           -2.25702037894995        0.46333933091474        2.25338023004520
C           -4.31767332718553        1.50014608811566        1.62385049530768
C           -2.95180885182884       -0.50749286678310        2.94791345588956
H           -1.17734779502344        0.44768448697573        2.23174088760820
C           -5.01370750316777        0.52855841790254        2.32497135310484
H           -4.87299898398619        2.27752448542649        1.12230550718736
C           -4.33608766040352       -0.48322455245436        2.97889125698697
H           -2.41150358328657       -1.28153853424319        3.47332422561442
H           -6.09294838718618        0.56084159905316        2.35131518769494
H           -4.88291392853743       -1.24414317981908        3.51580407250449
C           -2.90586375871873        3.37312195819250       -0.15373866892279
C           -2.00905848841739        4.20285733406308       -0.93275007135664
H           -3.55641298159081        4.01044077531978        0.44983814786138
H           -3.51236293105847        2.76945711401136       -0.83562855391501
C           -1.23345802085660        4.84590816931270       -1.57700642599059
H           -0.55231786362045        5.41763019411746       -2.13246699721135
Cl           1.31313176456315        2.50613722954179       -1.91713737735085
Cl           0.85287380479854        3.35625404941264        1.04049449617767
O            1.24892496890053        0.70407314222059        0.82073874617817
O            0.15338731669477        0.21616193622063       -1.35691513903860
C            1.48776463202351       -1.54672144195689        0.14236117025964
C            0.05928430998838       -1.63910594226061        0.04764931366119
C           -1.89334230611754       -0.82456237753203       -1.06559274558639
C            3.38305622189923       -0.06655758398123        0.32502240428424
C            4.26732175919167       -1.09339172956148        0.08099118936015
C            2.36754086138030       -2.61556597581041       -0.11373370698567
C            3.72292806223566       -2.38449001422424       -0.12571667857850
C           -0.73925004630881       -2.56699905630937        0.74768790168525
C           -2.08974168004509       -2.60180305080983        0.50695380837567
C           -2.70666151674546       -1.75322047979380       -0.44019520146957
H            4.40064188861249       -3.19482757892297       -0.34236281529619
H           -2.71577754561477       -3.26918802252128        1.07779404506114
C           -4.14513266742843       -1.87700030639041       -0.69049469353490
Cl          -2.43637788062170        0.22499960703488       -2.29076313416518
N            2.05308516368956       -0.30813692532436        0.40905146198645
N           -0.57777886079669       -0.75490620840993       -0.79922325578321
Cl           3.85827903430231        1.56326913265124        0.49974050074889
C            5.71854975510503       -0.88543344878867       -0.01251573528631
C            6.42371791731826       -1.42148125799127       -1.08834204788266
C            6.41540052506037       -0.18850437553567        0.97167975082889
C            8.47591347187609       -0.54838760444668       -0.20649798815651
C            7.78427734863443       -0.02407773715694        0.87296164127371
C            7.79135161991865       -1.24791640431437       -1.18637845433166
H            5.88946617615273       -1.95214440930421       -1.86266821328519
H            8.32476183409103       -1.65767973202357       -2.03136308970715
H            9.54439625921332       -0.41371852820003       -0.28327132896897
H            8.31471910661302        0.51543670091776        1.64341073340871
H            5.88427123387827        0.20745821617326        1.82276433236481
C           -4.71777865315022       -3.14617691237394       -0.78266545963742
C           -4.97362623083710       -0.76143563455665       -0.79100166818974
C           -6.89127326561625       -2.17705737747405       -1.07891970711276
C           -6.33361233913896       -0.91312630869194       -0.98066540760986
C           -6.07714993670139       -3.29321944053893       -0.98018869264388
H           -4.08640562377475       -4.02073194134894       -0.72255494284462
H           -6.50379202519707       -4.28251793952398       -1.05780455394285
H           -7.95412153280348       -2.29235675516044       -1.22984957896168
H           -6.96386141563947       -0.03886250615953       -1.04928263653147
H           -4.55379620016284        0.22467453113207       -0.68725997213092
C           -0.15925398907507       -3.42022961535845        1.83505081154399
H           -0.14910162772452       -4.46897690913173        1.54420261884198
H            0.85135376388155       -3.11113062751119        2.08270951381623
H           -0.77922719463967       -3.33535322174349        2.72536330524530
C            1.86248889443703       -3.97560424865312       -0.49004304922004
H            2.46130600703129       -4.36934601805096       -1.30815939769521
H            1.95782712643874       -4.66443102414434        0.34735394037031
H            0.82348103409567       -3.94231647842360       -0.80156537064015
