71
 energy: -124.555823117402 gnorm: 0.000660314949 xtb: 6.5.1 (b24c23e)
Si          -0.59274265755451        1.07900575947625        0.59261474278635
O           -0.18443070574489        2.04129397666537       -0.64123920214856
C            0.05377896782731        3.42866916570359       -0.67106160598475
C           -1.18320586064182        4.20957324493868       -0.31075683970180
H            0.85561028179527        3.66845609291230        0.03923141708103
C           -2.43024075253827        3.74681526230290       -0.70709531969354
C           -1.09164954760665        5.38846251292447        0.41464698660219
C           -3.57446350918082        4.44526573931907       -0.36775608526922
H           -2.49770494327538        2.82414765172266       -1.26436894220158
C           -2.23609060800521        6.09139412811050        0.74574244992990
H           -0.12346464719190        5.74475811169191        0.73483005134273
C           -3.47894809511938        5.61977523977124        0.35859028670029
H           -4.54182997826398        4.06911687778283       -0.66703670471309
H           -2.15815072596182        7.00400840624164        1.31813342389024
H           -4.37238579948396        6.16331966847463        0.62901803921491
C            0.50549965047201        3.77488637431200       -2.10201556087190
C            1.64466131409425        2.97652614466535       -2.50004120675028
H            0.75341539000363        4.83816694802872       -2.14944988228579
H           -0.32280125648382        3.57094265691041       -2.78538032286712
C            2.56598674191265        2.28543546299329       -2.82537252387355
H            3.37712971127618        1.69423964882604       -3.13083613542927
Cl          -2.44364062119884        0.60596902664081        1.40113201987143
Cl          -0.17119734908068        2.46646932960160        2.19656064928283
O           -0.84129486350897       -0.13075943236756       -0.78757048757411
O            0.59017325889342        0.01725852548890        1.25432946200985
C           -0.23075454847249       -2.25362218907192       -0.02980006175538
C            1.13734805031124       -1.82783810399868       -0.10224216422866
C            2.70850090977192       -0.04977965497845        0.31581652098249
C           -2.48833937190746       -1.74667477886014       -0.63344485956070
C           -2.93137341260928       -2.99366077613520       -0.23482550226586
C           -0.65415511972964       -3.50893650682292        0.45307619603641
C           -1.98285091201812       -3.84706715122578        0.36871554127606
C            2.15285952833075       -2.54384683853793       -0.76876332610330
C            3.41046791630880       -1.99972625164988       -0.86099287610548
C            3.72586012852005       -0.72406078754535       -0.32546221669185
H           -2.31940393412267       -4.79372069425436        0.76135025333581
H            4.17488589184868       -2.52184374778605       -1.41437136785405
C            5.08805611306407       -0.19566625913912       -0.45530853773028
Cl           2.91021797950679        1.46100376036927        1.07918850107890
N           -1.20188494099688       -1.37996079975228       -0.48144990298234
N            1.48567460544190       -0.60766981919689        0.45113995050898
Cl          -3.51016863449460       -0.58439473002117       -1.33572927446441
C           -4.33041528779094       -3.41976852894788       -0.36675299100408
C           -4.98366306401233       -3.97283398286967        0.73326483345948
C           -5.01568120258096       -3.30937638249069       -1.57428322778542
C           -6.97324399686339       -4.27251665374757       -0.57159754077138
C           -6.32729952001982       -3.73493136368470       -1.67245897010549
C           -6.29700252653767       -4.39013728085303        0.63146797239979
H           -4.46443682610592       -4.04637708715959        1.67725986272054
H           -6.79590948707743       -4.80585155046228        1.49437202169313
H           -7.99940235153585       -4.59888248512189       -0.65056288460549
H           -6.84830955692113       -3.64728768013024       -2.61431154288676
H           -4.51321769707838       -2.90654264932252       -2.43963778789438
C            6.17098108655164       -1.04838614187402       -0.23658094996364
C            5.33937382062565        1.12778308139937       -0.81400288681615
C            7.70646359901712        0.73123753760733       -0.71248857699826
C            6.63840021233327        1.58255680713438       -0.94238716800511
C            7.46731240952788       -0.58648900684655       -0.35895884935428
H            5.99118233427878       -2.07197024914748        0.05793173454395
H            8.29457850976405       -1.25627939590365       -0.17560113409570
H            8.71952473238168        1.09193901680792       -0.80860902096987
H            6.81757615450970        2.60926353821385       -1.22533706507360
H            4.51666845068283        1.79622774713891       -1.01082267426859
C            0.29528885381590       -4.42771701527200        1.16094174292005
H            0.45151546081353       -5.34029693787235        0.58893303447162
H            1.25275753999788       -3.94869775386432        1.33772907731183
H           -0.13347529415196       -4.71221638519504        2.12003145224365
C            1.86472576877748       -3.82974299590488       -1.48274282020205
H            2.36530372240491       -3.82622723384847       -2.44835121684501
H            2.24764787428151       -4.67730905014263       -0.91733616174918
H            0.79976963671118       -3.96673911219120       -1.64055784519027
