71
 energy: -124.558448732919 gnorm: 0.000539491395 xtb: 6.5.1 (b24c23e)
Si          -0.18130979330723        1.28511562928836        0.86708632541890
O            0.73607168067602        1.96666877495293       -0.27240809798405
C            1.61014728013562        3.06681873317630       -0.25192961929789
C            2.89913543966566        2.67903768210190       -0.93096865880179
H            1.80351858999204        3.36291969831312        0.78686914812989
C            2.88376987337376        1.77675046054078       -1.98676721009473
C            4.10697903190058        3.22681312515886       -0.52029496883812
C            4.06132349197348        1.42870511998374       -2.62482182863766
H            1.94281810963213        1.34193520198901       -2.28868061497431
C            5.28346560355311        2.88109421641580       -1.16189898747274
H            4.12304401125030        3.92058365375802        0.30795467120063
C            5.26298601126882        1.98378878013764       -2.21634140313497
H            4.04198598817124        0.72340441461888       -3.44360266580206
H            6.21926181240540        3.31029973990167       -0.83512656582557
H            6.18151285126932        1.71385823177735       -2.71683198051755
C            0.94441822747213        4.24279240243845       -0.99386743461508
C           -0.26200835869493        4.64812788096010       -0.30512431318360
H            1.64739961720726        5.07792716407352       -1.04590346218421
H            0.69533152419139        3.91888374769891       -2.00793236169623
C           -1.25917139039984        4.93296283700600        0.29125126689999
H           -2.13229420136348        5.19035909811456        0.81214272149417
Cl           0.66801183569654        2.24298870623936        2.59382631158627
Cl          -2.11194421688942        1.70312781248116        1.48750132588794
O           -0.83079632051564        0.33889991267341       -0.61111154479836
O            0.34027711271516       -0.21904537820615        1.51981550693270
C           -1.43054024950006       -1.79262418310966        0.13323646553090
C           -0.03379544165424       -2.11353468634067        0.16916016438376
C            2.18513162743855       -1.26520229620894        0.57582383987398
C           -3.06343743773797       -0.24662696122409       -0.67911898665967
C           -4.10511410004694       -1.09843945600223       -0.36011267241006
C           -2.46908278257227       -2.64128875653943        0.56920990174092
C           -3.77374612791957       -2.27930029785832        0.33697575361996
C            0.53101449340060       -3.26290581850542       -0.42169684847836
C            1.89850932090462       -3.37887601846649       -0.49095605154933
C            2.76739971073868       -2.35915182799594       -0.02606569537976
H           -4.57400426296044       -2.91411898548239        0.68384382400794
H            2.33628507807228       -4.23150999721530       -0.98530608012073
C            4.21834501713866       -2.49616004054639       -0.19532638888488
Cl           3.07968499984649        0.01317559401011        1.26953095660593
N           -1.78813843408852       -0.56394998444160       -0.39078219226220
N            0.84373144519873       -1.19172165521692        0.71912795063069
Cl          -3.29312375014602        1.25760487358099       -1.44044478759338
C           -5.50547243803344       -0.78611935014783       -0.67137985357884
C           -6.47670199333629       -0.90378327756531        0.32098919740535
C           -5.89212183556643       -0.39972220167978       -1.95272957516846
C           -8.17683689116073       -0.23686215431701       -1.23408585183478
C           -7.21914065628411       -0.12906074059122       -2.22886804294534
C           -7.80114627735432       -0.62512265991555        0.04125303069051
H           -6.18319102480162       -1.18618348133902        1.32104293127320
H           -8.54297682343645       -0.70808148786002        0.82175848383490
H           -9.21179508603497       -0.01937863933785       -1.45172813645828
H           -7.50774245940879        0.16696246222524       -3.22654194212388
H           -5.15280393226294       -0.32913302540217       -2.73500354140207
C            4.83812594178315       -3.70421926435254        0.12181010712291
C            4.99298496473514       -1.45118785584104       -0.69416902692510
C            6.96705670523831       -2.80754888123214       -0.52357737284754
C            6.35629256657888       -1.60957856691823       -0.85573786812838
C            6.20266619338721       -3.85499267127669       -0.03643189020348
H            4.24776812402941       -4.51719070793549        0.51857563950449
H            6.67240482318556       -4.79216282655763        0.22369706512307
H            8.03321930173186       -2.92638006016394       -0.64604201604758
H            6.94352683834550       -0.79108916705956       -1.24440846217209
H            4.52436420045708       -0.52200670999230       -0.97674291634411
C           -2.17488879108156       -3.86414190719570        1.38464079445032
H           -2.46339032037080       -4.76843290152246        0.85244166664306
H           -1.12306892320466       -3.92080877733229        1.64522431669653
H           -2.75767678329885       -3.82514872860624        2.30323376114582
C           -0.31812096994208       -4.30208059647248       -1.08849109012842
H            0.17081813346185       -4.63969791780324       -1.99923698207287
H           -0.44274665461239       -5.16837144948704       -0.44147174365807
H           -1.29897985023094       -3.91107160235008       -1.33989639461079
