71
 energy: -124.555863294149 gnorm: 0.000782010038 xtb: 6.5.1 (b24c23e)
Si          -0.04618922641588        1.19209558811618        0.66355226758101
O            0.70802996370437        1.84048188719916       -0.61094202962888
C            1.56195412189230        2.95482884024361       -0.70494897824263
C            0.82557542446561        4.24336154032064       -0.44698119586953
H            2.37386181729879        2.84777806759232        0.02587415783307
C           -0.49809051617546        4.37366449209115       -0.84310239869042
C            1.45919602286214        5.30768170413229        0.17801745303384
C           -1.18488501347994        5.55035864965028       -0.60608354239787
H           -0.98969169966459        3.53869039646598       -1.32002416976314
C            0.77404981945251        6.48737658798496        0.40668734083753
H            2.48530787508590        5.20434220886352        0.49960503101442
C           -0.54894459179882        6.61021720417310        0.01723488684601
H           -2.21894768562853        5.63844864164427       -0.90576549690005
H            1.27111297518077        7.30954526579418        0.90023970311825
H           -1.08557321982264        7.52865296344614        0.20549433175235
C            2.14418453191333        2.94563420489697       -2.13169120405677
C            2.74141161613696        1.66348809294705       -2.43683842801337
H            2.88584224459244        3.74293068670039       -2.22150991345200
H            1.33218140017410        3.13188630835233       -2.83914571865966
C            3.18987974961883        0.57870405882258       -2.66997773748932
H            3.59309274991482       -0.36197752816612       -2.90115457460707
Cl          -1.92887644851199        1.53638639722373        1.46050755868574
Cl           0.90063563968651        2.38005011672267        2.20098703584584
O           -0.76818268779696        0.11816396630922       -0.66190040357529
O            0.61972257692283       -0.21889409557765        1.39106829669650
C           -1.03978724965517       -2.03627705245354        0.19370416017023
C            0.38498206938547       -2.18878440169384        0.12295954771213
C            2.53565900386750       -1.17022808093341        0.49600602406425
C           -2.91701455404265       -0.71598173685067       -0.47347007957056
C           -3.81280936536595       -1.67847005701929       -0.04624863931883
C           -1.92081975889840       -3.00545224714406        0.71647863356980
C           -3.27570010705827       -2.80600207217072        0.61132639899008
C            1.02884676568451       -3.27889026290286       -0.49806625688912
C            2.39901566164943       -3.28814205334912       -0.58816362981665
C            3.19865970127825       -2.22418597585025       -0.09540135131838
H           -3.95690851784314       -3.53117543780864        1.02817925682208
H            2.89097254428495       -4.09568548634143       -1.10695743566837
C            4.65907517677461       -2.29901451073191       -0.21312524184185
Cl           3.32624169074631        0.16612180486357        1.19855643548851
N           -1.59044964132347       -0.87248641121979       -0.30781897704624
N            1.19143682760426       -1.18516543969520        0.63111776307114
Cl          -3.40192191519574        0.72691705428880       -1.23054006914888
C           -5.26545107478658       -1.54349521453224       -0.21225261729506
C           -6.10573322610905       -1.76963366125972        0.87648576490846
C           -5.82896876323808       -1.22643266716604       -1.44604796066520
C           -8.02884869716307       -1.34591617833990       -0.49210169866098
C           -7.20120003929751       -1.13021745388495       -1.58140285644134
C           -7.47656420943515       -1.66553935489989        0.73717188563216
H           -5.67589085779204       -1.99959945428822        1.84006245651960
H           -8.11644530408596       -1.83206464847016        1.59108252410141
H           -9.10009250061471       -1.26591373682109       -0.60061904123994
H           -7.62741718253832       -0.88722353282179       -2.54344242163421
H           -5.19053457531753       -1.07406664539471       -2.30192627550416
C            5.29753040681471       -3.50767327940359        0.06903819540479
C            5.43132689812887       -1.21259684706518       -0.62101982452512
C            7.42843187041221       -2.53692458149885       -0.44615655847687
C            6.80330542243552       -1.33586652898722       -0.73727640718210
C            6.66965200570465       -3.62271780459584       -0.04168457439826
H            4.71283113513886       -4.35216501224863        0.40319271302511
H            7.14933221530794       -4.56222092578666        0.19016299944219
H            8.50066140561119       -2.62726907423953       -0.53467991314579
H            7.38816007243806       -0.48746741746131       -1.05993487640178
H            4.95547148075434       -0.27738290697765       -0.86922894359667
C           -1.40650412265980       -4.18637046095838        1.48292890455724
H           -1.62258680521761       -5.11493408686763        0.95815197492778
H           -0.33737459629185       -4.11306112053971        1.65334774111880
H           -1.90956225372373       -4.23085394093231        2.44714721172892
C            0.25098743933904       -4.37119188506690       -1.16741851050955
H            0.70492789759486       -4.60010995177043       -2.12900465083392
H            0.27269669859600       -5.28035996350930       -0.56941692131196
H           -0.78265951150749       -4.08281454314748       -1.32832813071001
