71
 energy: -124.557475069677 gnorm: 0.000438403894 xtb: 6.5.1 (b24c23e)
Si          -0.33740806831307        1.00569055014299        1.30797713004085
O           -0.21797603868059        2.36695199686282        0.45178010740387
C           -0.70131080697121        2.75796570357301       -0.81367244891082
C           -1.86287229054186        3.70679402958888       -0.65697906877395
H           -1.02488712811353        1.87393439931436       -1.36940527419388
C           -1.99426619910956        4.48692410909854        0.48287695478661
C           -2.81274634823972        3.80522346912875       -1.66598590759191
C           -3.06615498639935        5.35267140370660        0.61292698853668
H           -1.26260465571763        4.39604100710368        1.27092823809642
C           -3.87987361957104        4.67539432045203       -1.53670386315358
H           -2.71709498420673        3.19152188448884       -2.55124706934592
C           -4.00884691474673        5.45040589129339       -0.39601684522270
H           -3.16552639099948        5.95073495564773        1.50659191212465
H           -4.61653105690163        4.74331391341621       -2.32412011643799
H           -4.84643918927779        6.12456022410162       -0.29275694437296
C            0.46269799989041        3.42453259462948       -1.57351772883074
C            1.39929104067824        2.42223027357161       -2.03140315052700
H            0.06739521069732        3.97687381776439       -2.42987751978217
H            0.96060833747096        4.12333337911313       -0.89702003984842
C            2.12501410567659        1.54431123932447       -2.39948687148918
H            2.77852465726029        0.79762766791007       -2.73966692495449
Cl          -2.06871551259271        0.19980099095830        2.10603045848245
Cl           0.23622428946261        1.99849436561276        3.06998499464948
O           -0.65983878765428        0.05101067979887       -0.34691340391013
O            0.97031857719624       -0.07483517273746        1.53628952060737
C           -0.02529938305864       -2.16334782645335        0.00836690355108
C            1.34051351058476       -1.74358626357131       -0.10293922144099
C            2.94619649881617        0.00344467133606        0.33412397875295
C           -2.30406907257324       -1.55978684975566       -0.38490923816641
C           -2.74260717272130       -2.85201639737503       -0.16309608558907
C           -0.44438537275730       -3.46766308174101        0.34673655977731
C           -1.77881629689350       -3.78461563442721        0.27286479485878
C            2.29639129262300       -2.39183965534496       -0.91317610510844
C            3.54521167509774       -1.83784271314566       -1.05729372974961
C            3.89824140814009       -0.60252409549195       -0.45526881687811
H           -2.10850841423126       -4.77397542827321        0.54889688591942
H            4.26371497854066       -2.30844890227725       -1.71000345363377
C            5.22857159938154       -0.02970422150721       -0.69250205762473
Cl           3.21327509627984        1.45719426868334        1.18446106647946
N           -1.00824261423483       -1.22758643887791       -0.25058145342474
N            1.74549254565302       -0.58386260276295        0.54256958052063
Cl          -3.35138862750748       -0.28398808619738       -0.81633396782855
C           -4.15025983874462       -3.24390534600485       -0.30168047889524
C           -4.77088361902966       -3.95561845547196        0.72326203034971
C           -4.87753709771400       -2.94056427720953       -1.45036347841613
C           -6.81055304324557       -4.03180967984385       -0.53628202316903
C           -6.19760692896396       -3.33449344365911       -1.56404786907213
C           -6.09289496342118       -4.34082817885028        0.60741089964980
H           -4.21941448628639       -4.17863727829495        1.62444174223096
H           -6.56639759197621       -4.88115064267085        1.41373341295647
H           -7.84349041337263       -4.33300944358199       -0.62590732854434
H           -6.75108739796274       -3.09654990806120       -2.46035937628539
H           -4.40074833898953       -2.41152069769555       -2.26088705503147
C            6.35036541372759       -0.85299767100480       -0.59908189725737
C            5.40114632124483        1.30860084430560       -1.04076318804338
C            7.77831029435941        0.98718539986594       -1.16803875387413
C            6.66811400065331        1.80830864956449       -1.27736141536898
C            7.61490543051544       -0.34574700084413       -0.82895868515258
H            6.22763398470679       -1.88917877037162       -0.31928900977555
H            8.47604286247351       -0.99186449541998       -0.74192859693126
H            8.76640305680251        1.38304211778972       -1.34887661654879
H            6.78915350983856        2.84576981981695       -1.55137118421463
H            4.54000814789992        1.94916288395830       -1.14966751825158
C            0.52057286479603       -4.46907307380322        0.90611020855826
H            0.62754168085427       -5.32387938180938        0.24123467047279
H            1.49541432008629       -4.02543695184292        1.08018295939881
H            0.13456854275471       -4.83881591933164        1.85451621394650
C            1.94942806375267       -3.60566098477716       -1.72155510546518
H            2.39635425452515       -3.52167660030572       -2.70970561818415
H            2.34936045270220       -4.50466963452003       -1.25639396810315
H            0.87544962657693       -3.71753831660264       -1.83135073877153
