71
 energy: -124.557809981861 gnorm: 0.000475866501 xtb: 6.5.1 (b24c23e)
Si           0.13506577838228       -1.17030341046863        1.40785307648693
O           -0.74172489418814       -2.29623385087203        0.66358744057213
C           -0.89487735151592       -2.70724205582101       -0.67871743986184
C           -2.33438170065663       -2.51276120171754       -1.08041333453045
H           -0.24078468837324       -2.11054391556372       -1.31835744865371
C           -3.34905740222863       -2.87708513023965       -0.20375136734149
C           -2.66280474674183       -1.97337534889979       -2.31631182890476
C           -4.67445583631004       -2.71322388322696       -0.56355550363934
H           -3.08808817458205       -3.27251886251816        0.76636425373239
C           -3.98947351857269       -1.81541922339360       -2.67862553664995
H           -1.87595727066313       -1.67693354116776       -2.99553729614813
C           -4.99694853077766       -2.18815647494313       -1.80440111232080
H           -5.45749273861345       -2.99448287162758        0.12515815410774
H           -4.23787355693034       -1.39441702677049       -3.64205650018773
H           -6.03167458426103       -2.06378459492853       -2.08853351991778
C           -0.49758922342665       -4.19138428706212       -0.78205763632521
C            0.90511062115546       -4.36764537752323       -0.47248779735219
H           -0.70664734423713       -4.54602863147147       -1.79509735021397
H           -1.09764052661087       -4.76501453284186       -0.07124452104816
C            2.06456003824492       -4.47242065404034       -0.19699537494120
H            3.07898024229294       -4.58138756651680        0.04692984116028
Cl          -0.62744591838795       -1.71948094613116        3.27761986206887
Cl           2.11576543926229       -1.31562757100233        1.95491285881493
O            0.70984404109709       -0.49624236750733       -0.37511905134426
O           -0.44569728456164        0.42039523397770        1.64778140694817
C            1.28100339264407        1.73904689963951       -0.06120377103043
C           -0.12067623779057        2.03868018277850       -0.04926143044402
C           -2.31906062612097        1.23981162185470        0.54428540143080
C            2.92267587829329        0.09456692358966       -0.60840575513577
C            3.95738308254700        1.00112427897103       -0.46029246630063
C            2.31145082597584        2.66702413276034        0.19414670313848
C            3.61852706764381        2.28429043658112        0.01172027677552
C           -0.71759101602568        3.05762722576404       -0.81877158631233
C           -2.08784655757693        3.14589609256156       -0.87204963122230
C           -2.92971308360718        2.21018604730272       -0.21657900406757
H            4.41379755168902        2.98112971885097        0.22573988316490
H           -2.55045385078368        3.89570377601381       -1.49375106283360
C           -4.38637861973114        2.31209228604443       -0.36133436881762
Cl          -3.17740418612687        0.07977891366765        1.45658214024814
N            1.64835502854334        0.44100486516083       -0.35754954370837
N           -0.97153054866777        1.20787842378540        0.66946728823656
Cl           3.16234100705875       -1.52214217726225       -1.09151564709178
C            5.35999419713506        0.64267282108638       -0.70404469808864
C            6.32008651914313        0.93658214166428        0.26240296470750
C            5.75945613895609        0.03090131017101       -1.88976746961652
C            8.03544130804052       -0.00189440895763       -1.12640736283122
C            7.08895628203272       -0.28628013952949       -2.09676246415191
C            7.64661959968624        0.61064669439231        0.05349851734510
H            6.01500319849582        1.39417893374621        1.19164493266636
H            8.37944251073062        0.83162076612355        0.81540989568309
H            9.07202201851378       -0.25690048241759       -1.28860208771520
H            7.38829587355908       -0.75814693296769       -3.02095221885919
H            5.02873574046928       -0.18012279939595       -2.65491888814917
C           -5.00399465114434        3.55321975293617       -0.21250570064112
C           -5.16824591753917        1.20152493425965       -0.66938702331153
C           -7.14567344013497        2.56437745557732       -0.64392464394106
C           -6.53721086898399        1.33114097970422       -0.80911353362291
C           -6.37381682126666        3.67560092951183       -0.34729245761486
H           -4.40639060366826        4.41827085806977        0.03532943566811
H           -6.84156010647692        4.64052456757202       -0.21795992662213
H           -8.21606459664697        2.66056662420219       -0.74801881206079
H           -7.13263797200551        0.46308171930984       -1.04949494412194
H           -4.70025975661048        0.24215589116176       -0.82191150719054
C            0.09810749122227        3.97352700557367       -1.68040182638982
H            0.21407161401217        4.94544616542091       -1.20449630752885
H            1.08300331626012        3.56216115879773       -1.87767998774153
H           -0.41393254942100        4.13041260993474       -2.62697779029523
C            2.01034780406198        4.01304090539672        0.78059008253502
H            2.61485901202174        4.15178479100582        1.67520378597392
H            2.26704343825490        4.81022224611536        0.08560508942114
H            0.96375124454534        4.09882894574695        1.05423024595239
