71
 energy: -124.555073852664 gnorm: 0.000850166761 xtb: 6.5.1 (b24c23e)
Si           0.09495572521822        1.49625964235140       -0.26873569526985
O           -1.42267564158782        1.10607072152402        0.15186051124301
C           -2.46589221938682        1.39244185419710        1.05003018179477
C           -3.42092155664710        2.42342393778637        0.49819136179537
H           -3.00091911980420        0.43182142791958        1.14585558433018
C           -2.95970457057693        3.58898452024201       -0.09738578907879
C           -4.79035995253731        2.20707105679505        0.59781891880451
C           -3.85685165117813        4.51759405892930       -0.59554867413310
H           -1.90006174574279        3.77110220778044       -0.17276950439207
C           -5.68537410909410        3.14021642258796        0.10665671222614
H           -5.15797529934191        1.30416954660833        1.06732029340212
C           -5.21962756163688        4.29679523712544       -0.49535070057255
H           -3.48583132778904        5.41773592972058       -1.06184165684328
H           -6.74765378409857        2.96167921728854        0.19070223861603
H           -5.91790168376377        5.02287433545971       -0.88504043401983
C           -1.98224559430973        1.79219582125063        2.45544529845338
C           -1.13873674443752        0.75691348000608        3.00861692252124
H           -2.86051332990165        1.93984099915832        3.08935953476134
H           -1.42061819322123        2.72565837942682        2.39738951020707
C           -0.44015407871100       -0.13087912544046        3.40388952433159
H            0.18429569432927       -0.87588941856181        3.79642740240077
Cl           0.51700763869558        2.39875008918947       -2.05994453790344
Cl           0.43399953827527        3.25367318310582        0.89414888940994
O            1.25974662241572        0.74175296885742        0.74275726436900
O            0.11589270441916       -0.07974272672706       -1.30092269127283
C            1.72836363387689       -1.53977747430189        0.25452867868412
C            0.32456949671931       -1.83121964152490        0.21831873340936
C           -1.74135801128834       -1.37995993150965       -0.90102240372252
C            3.42197326746211        0.17562972190852        0.16106116811139
C            4.42468179904003       -0.74928843486121       -0.01604917853338
C            2.73361941006693       -2.50943140736700        0.06477021424503
C            4.04620359691475       -2.11420220673414       -0.04050372105108
C           -0.33110407552173       -2.79716426576438        1.01070288882508
C           -1.66851685755857       -3.03352050063669        0.80866286727928
C           -2.41152529039395       -2.35362851977671       -0.18183110195807
H            4.81472015985635       -2.85339099198462       -0.20120970442805
H           -2.18722550551750       -3.73201983914078        1.44676912755045
C           -3.82856015879304       -2.67258668810559       -0.38680904286560
Cl          -2.45050059724106       -0.49412356035612       -2.17293573368989
N            2.13984528421746       -0.21691354241579        0.35987819559788
N           -0.44241524496841       -1.11916013512795       -0.67949354744031
Cl           3.68112330915113        1.86344150342396        0.10287004345836
C            5.82840745644744       -0.37029411926798       -0.22431401087434
C            6.55146536603232       -0.94641148767393       -1.26712985390393
C            6.46695390166795        0.53453936460358        0.62054136715393
C            8.50181832692557        0.29546088970364       -0.63044620395334
C            7.79417155552650        0.86228913733818        0.41664176364296
C            7.87645072424529       -0.61040996371220       -1.47095307889931
H            6.06110507638818       -1.63957860425363       -1.93478421836306
H            8.42272542336011       -1.05529334232965       -2.28956047631372
H            9.53697316425420        0.55737490678124       -0.79008379437107
H            8.27934093715759        1.56342536398172        1.07924378349663
H            5.92633030965480        0.96567384670016        1.44835617128667
C           -4.23490053191076       -4.00695866368125       -0.40751470040157
C           -4.79374717415624       -1.67589052196538       -0.52223418032025
C           -6.51656282399611       -3.33689297385261       -0.71904410633376
C           -6.12497893239602       -2.00872423306200       -0.68624462587637
C           -5.56632967372587       -4.33471785466798       -0.57769675227360
H           -3.49540786843196       -4.78892369072076       -0.31404421705999
H           -5.86407984503048       -5.37266193774601       -0.60221482934590
H           -7.55683136495418       -3.59333577158421       -0.85192048627598
H           -6.86122089961185       -1.22520368069574       -0.78751573687889
H           -4.50584839714958       -0.63747972823237       -0.48133647631572
C            0.36933630815447       -3.47557330166998        2.14931000496000
H            0.50968409986864       -4.53557007368577        1.94508859263415
H            1.33641061444064       -3.02209437997796        2.34322803806694
H           -0.24716241268781       -3.39679972376442        3.04297094854308
C            2.40346954505952       -3.95602915587757       -0.15065637733789
H            3.02994312199176       -4.35306208774310       -0.94620830175514
H            2.60916197276524       -4.53522594641461        0.74761422887179
H            1.36261704449609       -4.09084011883433       -0.42620742044869
