71
 energy: -124.553243581844 gnorm: 0.000948866685 xtb: 6.5.1 (b24c23e)
Si          -0.30708884834372        0.91908521485786        0.50761740168509
O           -0.97487837853671        2.33603791344337        0.88705550104560
C           -0.81962246539382        3.66425469665153        0.45386022513893
C           -2.05704708789656        4.11168914058112       -0.28220368455777
H            0.05109708075581        3.74172076963378       -0.20733286038029
C           -3.28480123723569        3.51560877279538       -0.03066954522754
C           -1.97636331588635        5.14220241733004       -1.21022349022721
C           -4.41649015301808        3.93955312057761       -0.70507888329676
H           -3.34224644417338        2.71177713527424        0.68758627589068
C           -3.10999057057868        5.57060420939686       -1.87691424465650
H           -1.02006000452833        5.60345409777110       -1.41340053007864
C           -4.33226331936230        4.96878052624743       -1.62692874466964
H           -5.36685879920750        3.46488453385629       -0.50839883330458
H           -3.03850981050964        6.37188746287748       -2.59807765295877
H           -5.21601870510743        5.30028591234253       -2.15259045072714
C           -0.58102250423409        4.54100901646522        1.69904919845199
C            0.69337545226758        4.22082802303577        2.30580336018177
H           -0.59996852904807        5.59368147517238        1.40486200889401
H           -1.38596930902722        4.35353397517328        2.41436647415646
C            1.75131554199142        3.91247331934199        2.77180235969718
H            2.67713974837024        3.66618478350421        3.19906941325227
Cl          -1.67956414462354        0.05473782863906        1.92277732223058
Cl           1.16967572069648        1.75981839741035       -0.89242838051036
O           -0.74816405512388       -0.10997693551066       -0.80227546963988
O            0.87392089492856       -0.09723349509250        1.25807504201062
C            0.01163344406326       -2.25002512264761       -0.19982361928205
C            1.37412040157425       -1.78086099864872       -0.29608172117528
C            3.03817759729368       -0.20274966352689        0.42904874366919
C           -2.33219965095565       -1.77109182275174       -0.46578509919946
C           -2.68810490900883       -3.05763719210884       -0.12546610790938
C           -0.32080270057889       -3.56141783204583        0.18259570208058
C           -1.64307128950683       -3.94175625036336        0.22413641342073
C            2.33799884281192       -2.38662280281055       -1.12315882725721
C            3.61630094665274       -1.87740822787875       -1.16024246186688
C            4.00170212478884       -0.76335507768058       -0.38103010486978
H           -1.90159477451649       -4.93635463578861        0.55132431109088
H            4.33929524902203       -2.29878245892603       -1.84067891211714
C            5.36382563877433       -0.22488398992527       -0.47318534635184
Cl           3.35063205167336        1.06703685996555        1.51196246709736
N           -1.03551632640669       -1.40006161412748       -0.51493041494545
N            1.78790641934344       -0.70509077229694        0.46929513799864
Cl          -3.45925232153729       -0.55395980290774       -0.83072271193530
C           -4.08626176193154       -3.50299042741428       -0.06586587670739
C           -4.54510364511230       -4.17366431567050        1.06605615778041
C           -4.96012748306350       -3.29362485463562       -1.12985605968018
C           -6.71806667080136       -4.39806761803911        0.07574955514421
C           -6.26605806062143       -3.74137304064195       -1.05689736180670
C           -5.85396673654439       -4.61176041578238        1.13699081218399
H           -3.87739822095425       -4.32159029380968        1.90147474377826
H           -6.20223092656845       -5.11957383577168        2.02424856223033
H           -7.74007390630117       -4.74198140762753        0.13146948640967
H           -6.93453476217147       -3.57740668480349       -1.88905460588867
H           -4.60898660974333       -2.79559831111802       -2.02015946118606
C            6.45820816883770       -1.08402150411775       -0.40269670720103
C            5.57962046397080        1.13704275761880       -0.67224099276993
C            7.95222651548003        0.76957851351372       -0.69089466178212
C            6.86752576700977        1.62688534438500       -0.78054179866328
C            7.74403185464980       -0.58701813516443       -0.50459007981880
H            6.29636995431293       -2.14056109752276       -0.24501115459816
H            8.58649337229477       -1.25971961654694       -0.43792064462971
H            8.95716433907760        1.15644589098458       -0.77081708117550
H            7.02587500000229        2.68312666825791       -0.93922724570324
H            4.73541017617308        1.80159550179161       -0.77035033656103
C            0.72410130317136       -4.52610020095770        0.65624167734733
H            0.84919120657012       -5.33579411674828       -0.06038509045233
H            1.68106818617206       -4.03810319749387        0.80908529280325
H            0.40312912724418       -4.96713135837249        1.59757213790708
C            1.97461651722123       -3.49908125691471       -2.05963788604960
H            2.36899276353016       -3.27845367784819       -3.04927669755528
H            2.41929897971146       -4.43628996074062       -1.72992763151128
H            0.89934658773684       -3.62604625610206       -2.13243031269551
