71
 energy: -124.557535836428 gnorm: 0.000468098724 xtb: 6.5.1 (b24c23e)
Si          -0.06443545272736        1.04820208191264        1.31311597041935
O            0.40836822134275        2.30277595262373        0.41664940369060
C            0.08010508635789        2.74638477152365       -0.88047268072561
C           -0.76542358398943        3.99287309660029       -0.80507327471179
H           -0.46980207150640        1.96190577892159       -1.40697475994210
C           -0.69008132026580        4.83711950737096        0.29338929638077
C           -1.62427581617085        4.30663310000334       -1.85099891342999
C           -1.46731583179075        5.98104894286607        0.34536309446919
H           -0.03378845509054        4.58077776897890        1.11082571039102
C           -2.39553615498204        5.45340814193740       -1.79981102680938
H           -1.69131978032352        3.64500415002866       -2.70377299399443
C           -2.31835464381265        6.29293581552985       -0.70082997326683
H           -1.40812932906426        6.62941311776832        1.20693867968032
H           -3.06302479167276        5.68924081448995       -2.61600485726370
H           -2.92492237902424        7.18574752527547       -0.65939272100886
C            1.39812568751317        3.02122021603268       -1.63185080636292
C            2.02833468425079        1.77799460200718       -2.01660434026596
H            1.18823424753454        3.61689834996346       -2.52393546393500
H            2.05842240710449        3.58859868603882       -0.97149272124337
C            2.49350699561794        0.71883686959632       -2.32399124375502
H            2.92298889808757       -0.19258035822867       -2.61569090169223
Cl          -1.95979774196922        0.72400591122787        2.08014579039019
Cl           0.69033878961191        1.94464804176834        3.05852751503892
O           -0.56524416717039        0.13410459814138       -0.31753606219672
O            0.92583077341218       -0.31220730387837        1.62907336465861
C           -0.51918866669780       -2.15212141224255        0.14019334357045
C            0.91094065158430       -2.09304975434609        0.06762077545304
C            2.88630882737327       -0.77295076112140        0.48921441146205
C           -2.56008697499500       -1.01259372406037       -0.35880432429598
C           -3.31753545979757       -2.14033784767698       -0.10398063327526
C           -1.26429222635222       -3.29203491450965        0.51061617834514
C           -2.63329730058384       -3.26533096024019        0.40023606534909
C            1.69807863377000       -2.99559688083196       -0.67837685790277
C            3.04810065950494       -2.77157149389545       -0.80037342039352
C            3.67843639850732       -1.62956272168607       -0.24252165465867
H           -3.21025433841053       -4.12573387015014        0.70130802360752
H            3.64477351720741       -3.43588277034082       -1.40577920532907
C            5.11065285792891       -1.40294565567877       -0.46901268054292
Cl           3.48224085836899        0.61173094363007        1.28573423542067
N           -1.22619841915241       -1.01176004034404       -0.19036119965421
N            1.57456196786191       -1.04035751956276        0.68241308389760
Cl          -3.24003410097903        0.46398500730761       -0.87597816971417
C           -4.77541664069616       -2.16522631235469       -0.27413948200827
C           -5.58147236150341       -2.63254460088940        0.76200407564599
C           -5.37328926254838       -1.74882569774874       -1.46126644525298
C           -7.54299745047793       -2.24748619226754       -0.56347665930510
C           -6.74766558487402       -1.79280159479743       -1.60222718441825
C           -6.95552833363124       -2.66685769568451        0.61869557267039
H           -5.12611717473140       -2.93976493208460        1.69165620174942
H           -7.57087986513644       -3.01841946301230        1.43358020190355
H           -8.61664649341337       -2.27439788374003       -0.67443662739814
H           -7.20068039096334       -1.47051066474855       -2.52809992645631
H           -4.75744962128108       -1.40727441994650       -2.27880793354526
C            6.00288666479860       -2.46249139352032       -0.30814806242939
C            5.60098310684061       -0.16357342271604       -0.87605597015576
C            7.83489908896236       -1.04496545619201       -0.92765859906138
C            6.95346963500388        0.00899439636571       -1.10365040202666
C            7.35471803083740       -2.28179966548181       -0.53006506529649
H            5.63333238917394       -3.42412732651579        0.01694267855329
H            8.03626619469224       -3.10810729536797       -0.39121901516168
H            8.89106919973934       -0.90437612532958       -1.10215623989730
H            7.32146420778782        0.97251767513987       -1.42341899122172
H            4.91761421931079        0.65516621417675       -1.03869956759596
C           -0.60055850581844       -4.47871692602917        1.14171961642229
H           -0.69504814888048       -5.36128012454777        0.51206348678863
H            0.44952087758430       -4.28788903745671        1.33729300018876
H           -1.09425393647658       -4.69729278604197        2.08705570886671
C            1.08487032611247       -4.12696809259061       -1.44731379974359
H            1.56476082997397       -4.20480484765544       -2.42039728580534
H            1.23948714936447       -5.07172527011027       -0.92950091928204
H            0.01970169384036       -3.97862686160302       -1.59315542258127
