71
 energy: -124.558387487390 gnorm: 0.000384311314 xtb: 6.5.1 (b24c23e)
Si          -0.21143871240366        1.31581109609566        0.88526319842522
O            0.69490597398673        1.97828020522007       -0.27356253934294
C            1.61860603120531        3.03715496741186       -0.26564646065965
C            2.87759151115056        2.59776829952954       -0.96914917648572
H            1.84340709583719        3.32057927292769        0.77041896616858
C            2.81358170277869        1.66485213643042       -1.99589736706169
C            4.10759458749628        3.13345605207549       -0.61091059846069
C            3.96494031632667        1.27452565613015       -2.65706563400952
H            1.85573875920549        1.24118188294941       -2.25758982057845
C            5.25752867298549        2.74568604099036       -1.27586798266273
H            4.16142366053577        3.85136846723362        0.19487708582016
C            5.18854662237412        1.81781353143766       -2.30153144128093
H            3.90785505335535        0.54490827943616       -3.45235668027008
H            6.21053426814178        3.16619484661953       -0.99014726583745
H            6.08635276594114        1.51461135263303       -2.82019744129633
C            0.99373712367516        4.24599936425135       -0.99036203834401
C           -0.17604723405964        4.70599732992423       -0.27335418056972
H            1.73462171968716        5.04674073240173       -1.05557677457263
H            0.70758308289682        3.93804526608170       -1.99957454576194
C           -1.14246597413814        5.03391710113485        0.35086863307027
H           -1.98977576172962        5.33084679806286        0.89284679393675
Cl           0.66306219744896        2.28863321781434        2.59323622035679
Cl          -2.13013853011600        1.78039734006550        1.50640382383131
O           -0.88113503062337        0.34938165428073       -0.57005666761348
O            0.29486635411200       -0.18239166809906        1.56254080121139
C           -1.49227293423681       -1.76526834461828        0.21426622016915
C           -0.09756820796158       -2.09615640007534        0.24450591426298
C            2.12958101370869       -1.26293510073126        0.63821320203753
C           -3.12112646216703       -0.21479184636296       -0.59819432992342
C           -4.16636199168785       -1.04752876204865       -0.24394738481198
C           -2.53250773349292       -2.59906466790261        0.67394128827498
C           -3.83685209302564       -2.22396207155567        0.46108436566050
C            0.45622285842517       -3.25780040238070       -0.33219281838484
C            1.82256541102814       -3.38872300881870       -0.39840245792043
C            2.70148706475446       -2.37261680132404        0.05554008042764
H           -4.63858614825489       -2.84449827875775        0.82976175187430
H            2.25204232496955       -4.25219445276410       -0.88111632364767
C            4.15182233476958       -2.53113978118903       -0.09943176719571
Cl           3.03546062879421        0.01777698710570        1.31194417623400
N           -1.84460206122964       -0.54083335270527       -0.32354172647895
N            0.78874975271460       -1.17373972911685        0.77882721815258
Cl          -3.34871191957670        1.27326191579094       -1.39033055497901
C           -5.56985716882755       -0.71587120765817       -0.52078158379960
C           -6.50787207777483       -0.78671673364547        0.50714641836760
C           -5.99184202269038       -0.35417027445966       -1.79780707905524
C           -8.24636693952904       -0.12304011112943       -1.00580772357451
C           -7.32199805581350       -0.06247560113749       -2.03542860980218
C           -7.83497233255946       -0.48582499005019        0.26595869147947
H           -6.18487188848413       -1.04988040927301        1.50333135017845
H           -8.55040915327800       -0.53138694441395        1.07359606486851
H           -9.28341926731391        0.11168589010091       -1.19347861390611
H           -7.63925846353013        0.21353556964529       -3.03009727038555
H           -5.27828725184734       -0.31879600364682       -2.60598035146547
C            4.75149935420338       -3.74235395521357        0.24347311682876
C            4.94625907304527       -1.50449715189687       -0.60503761992622
C            6.89987962638920       -2.88391926435736       -0.38925928690493
C            6.30922337720212       -1.68337143295175       -0.74739980496018
C            6.11566169684919       -3.91364970235207        0.10415184123074
H            4.14546785884786       -4.54110839292652        0.64542147593942
H            6.56959675386620       -4.85278019324173        0.38442674830895
H            7.96590055649548       -3.01834861505729       -0.49578696589382
H            6.91201998454439       -0.87856847629912       -1.14082289248583
H            4.49348914292319       -0.57404506292980       -0.90817349557864
C           -2.23971592505951       -3.81923101517291        1.49393013901664
H           -2.53780567470073       -4.72425440688198        0.96816792643471
H           -1.18633005434314       -3.88172386264640        1.74667356299484
H           -2.81554250935590       -3.77231875512934        2.41647801569463
C           -0.40301529942359       -4.29645838535192       -0.98687936770248
H            0.07605813395206       -4.63871056275638       -1.90118932731156
H           -0.52365722655635       -5.16023670731017       -0.33578881991345
H           -1.38482734083423       -3.90315036744670       -1.23037730043751
