71
 energy: -116.481770235855 gnorm: 0.000339244822 xtb: 6.5.1 (b24c23e)
Si          -0.32187527493496        1.16972072717544        0.91630270177288
O            0.45843551655137        1.95955330573997       -0.25949519405596
C            1.23335109520199        3.13272271701666       -0.25360980644044
C            2.63098851098938        2.80614623211591       -0.71662036216171
H            1.26663127565545        3.54490907704547        0.76163563558868
C            2.82465094884550        1.88670693780594       -1.74097743924709
C            3.73345348343944        3.40916486388300       -0.12588737209060
C            4.10366183875197        1.57404286599713       -2.16716569453326
H            1.96376860281615        1.40803582547565       -2.18390676227058
C            5.01187483144050        3.09666216790808       -0.55437486505131
H            3.58577291829064        4.11589601457295        0.67728281025103
C            5.19961765176579        2.17909324550561       -1.57439265991061
H            4.24556556415467        0.86027204503790       -2.96644903372919
H            5.86426565341870        3.56738323435750       -0.08741177505489
H            6.19832915104863        1.93502251399715       -1.90547991053590
C            0.57229766382057        4.15790744904901       -1.19532081993299
C           -0.76088764086054        4.47194198489547       -0.72829608672942
H            1.18466831387430        5.06252183376282       -1.22517038196525
H            0.51590092375131        3.73012920541441       -2.19966707328496
C           -1.86274547836134        4.67385656125651       -0.30830637053812
H           -2.82489442034837        4.87218744142344        0.05861965822510
Cl           0.60394875591442        2.17677542370484        2.61062734264186
Cl          -2.21539560352342        1.57335161609305        1.65310323445936
O           -0.97795232376291        0.20372077051436       -0.47486071262633
O            0.32437450411473       -0.26113680586834        1.58394590210426
C           -1.47334689835436       -1.97686617498556        0.19689145023350
C           -0.09400109671706       -2.25093082869215        0.38117209249572
C            2.14155789875774       -1.42129306676270        0.74933897615502
C           -3.18640070338174       -0.46927285167312       -0.55303566946362
C           -4.16882121741207       -1.42141636772892       -0.32800518629015
C           -2.46001033497987       -2.97200587757475        0.36174668000802
C           -3.77516371647011       -2.69707930098739        0.13696710941718
C            0.46246818894153       -3.50651017722053        0.05104110584045
C            1.81112515077230       -3.67688236196442       -0.01520201974866
C            2.68931766824366       -2.59311847192108        0.26030876848040
H           -2.15471834920671       -3.93662776775518        0.73206585506228
H           -4.53119537347541       -3.44358451301673        0.32227555531139
H           -0.20525184950189       -4.30363781357321       -0.23118626520020
H            2.22919351856072       -4.62055877063413       -0.32667754577308
C            4.12802350081732       -2.75323894592765        0.02744204256095
C            2.94275138834797       -0.29108415615721        1.29277447042074
N           -1.90419482254739       -0.74708663690292       -0.24796794314972
N            0.79963106129750       -1.30092905113883        0.83783782417484
C           -3.44508657323881        0.82703389613315       -1.23780078019363
C           -5.59310769758008       -1.14192347138351       -0.54558274869606
C           -6.17898693369761        0.01010537220297       -0.02189218580696
C           -6.39342182771030       -2.05353394856019       -1.23192304257874
C           -8.31529723746661       -0.65988321368817       -0.88851945224151
C           -7.74279650284855       -1.80987058137947       -1.40648606028198
C           -7.53010011923888        0.24520961348442       -0.19276305284343
H           -5.57335924680099        0.70111870537520        0.54387619278242
H           -7.97469905119858        1.13713593351275        0.22317415345018
H           -9.37018654723934       -0.47252590421062       -1.02265408872294
H           -8.35068745458887       -2.51987986357989       -1.94801020992636
H           -5.94773397822242       -2.94608274770429       -1.64721431174213
C            4.78696250768378       -3.91060374530096        0.44070792493732
C            4.85345852819373       -1.77601951376917       -0.65512021976153
C            6.84816822031439       -3.09981514764911       -0.48214476000608
C            6.20091864260465       -1.95059263128598       -0.90586899588487
C            6.13585137963233       -4.07842786452626        0.19155143421862
H            4.24113384210257       -4.66986926162757        0.98159248298876
H            6.63483117175450       -4.97632541389232        0.52547859727869
H            7.90145606974478       -3.23377942009635       -0.67787776975628
H            6.74787460384330       -1.18658114527539       -1.43832323555114
H            4.35173864643065       -0.88774695030228       -1.00802767237659
H           -2.62018102004328        1.04318061725904       -1.91442653707456
H           -4.38190476843347        0.78352954767937       -1.78523794245705
H           -3.48409851181092        1.64188288164023       -0.51793133175072
H            2.86902117739351        0.57746442711024        0.63766191017895
H            2.54233440724760        0.01245988964603        2.25954515068827
H            3.98578579742535       -0.57016917907438        1.40035628570489
