71
 energy: -116.482387212956 gnorm: 0.000293506254 xtb: 6.5.1 (b24c23e)
Si          -0.36578448351847        1.58824494054478        0.64186781557604
O            1.23450954599761        1.66329301006371        0.33566947234919
C            2.06677352739775        2.72978138759382       -0.05951259842943
C            2.84716641372731        2.33108792559642       -1.28550044044930
H            1.44583497538042        3.60382307347385       -0.28216996349668
C            3.53094493631857        1.12233218790656       -1.32060734819492
C            2.90139744701615        3.17401716094277       -2.38704859621729
C            4.26130552585302        0.76654982945905       -2.43988088361912
H            3.48371782308144        0.45744534281138       -0.47073751409684
C            3.63668426462418        2.81866279492463       -3.50426883096113
H            2.36125265185469        4.10920326159508       -2.36728441477226
C            4.31980878833148        1.61487751766697       -3.53228866170332
H            4.79516856249983       -0.17251932525855       -2.45852902131569
H            3.67400054256437        3.48167568067224       -4.35606138713913
H            4.89477455122542        1.33740340665949       -4.40368773405389
C            3.02573993191463        3.08777885993138        1.09451988527678
C            2.27095863691566        3.39725971611083        2.29014146142788
H            3.62365508597573        3.95151927164939        0.79329441422400
H            3.69758745698841        2.24646948010898        1.28777934231262
C            1.58502153622079        3.60765855415332        3.24754072986319
H            0.98930047851651        3.80729485182489        4.08709397607665
Cl          -1.27865737993062        1.90083161904630        2.45782038903074
Cl          -0.90005352220193        3.52719966085295       -0.13283503452642
O           -1.27031874495980        0.95727820613594       -0.65870617394348
O           -0.13478615067681       -0.10208935829928        1.27742356116403
C           -1.35963394378537       -1.39811513555054       -0.81977905975247
C            0.01185842458238       -1.59428499229987       -0.51636115346071
C            1.84582420561009       -1.25782582558598        0.99719120184554
C           -3.34698628612367       -0.05562572748672       -0.55872201009148
C           -4.15120880051520       -1.14132553898890       -0.84946374650905
C           -2.17233329511768       -2.45655924835948       -1.28150080778039
C           -3.52837128258385       -2.33618832002682       -1.30025931957625
C            0.81033136097740       -2.50825996510501       -1.23656367341251
C            2.08985647952279       -2.77338541496568       -0.85469027545914
C            2.62507027290288       -2.17579613210112        0.31103187927927
H           -1.70089180975544       -3.39129554955054       -1.53667648399326
H           -4.14857996684889       -3.16523980455878       -1.60114033083766
H            0.39332971128076       -2.96340084769900       -2.11966458221817
H            2.69984455841905       -3.46301189129937       -1.41655605840775
C            3.97786913165784       -2.55727502790792        0.74262316407201
C            2.29424929702370       -0.53443289705575        2.21937627234478
N           -2.00346329184504       -0.19254876010343       -0.61681321114683
N            0.60217012040269       -0.97616816609328        0.56354107238260
C           -3.85818844397891        1.31120458105208       -0.26946585075085
C           -5.61284361027467       -1.09910939053427       -0.72237440418410
C           -6.21626930819463       -0.63799374988840        0.44730889248696
C           -6.42157983051713       -1.56672780112150       -1.75676557233649
C           -8.38830403737265       -1.08960092952800       -0.46846918940618
C           -7.79794157386496       -1.55579572144645       -1.63152732733959
C           -7.59281381581689       -0.63515005050021        0.57063202885128
H           -5.59962575586555       -0.30492345926346        1.26842855611824
H           -8.04719260136872       -0.27968929806387        1.48353257697024
H           -9.46352124084775       -1.08353334295032       -0.37115984242098
H           -8.41319291140165       -1.91140621027910       -2.44495400018671
H           -5.96565262499154       -1.91743140858367       -2.67126068847394
C            4.23187317384654       -2.99551315129754        2.04120549931683
C            5.02704140355513       -2.53447841957779       -0.17441117391722
C            6.54596501169976       -3.33450928801110        1.49982434701773
C            6.30131237617830       -2.91240299685583        0.20342484503921
C            5.50626619673572       -3.38094281697350        2.41371896309097
H            3.42089262564733       -3.06011382068309        2.75095153364152
H            5.68799808263797       -3.72352796295610        3.42172185605899
H            7.54098044450354       -3.63192372690589        1.79470023162153
H            7.10675455639626       -2.87839925672933       -0.51537981216186
H            4.83857966317937       -2.20130302377727       -1.18440290155466
H           -3.34625806465582        2.03798224493850       -0.89969564729843
H           -4.92801959295554        1.36988144701863       -0.43970783002587
H           -3.63715079357414        1.58518365662063        0.76299911583426
H            2.04525736783246        0.52071473981342        2.13306854810512
H            1.75593856473322       -0.91127776147527        3.08918290761285
H            3.36209045171934       -0.65252289345831        2.37428001658705
