71
 energy: -116.482135541281 gnorm: 0.000908569875 xtb: 6.5.1 (b24c23e)
Si           0.02222869388408        1.19118606708543       -0.35022557241600
O           -1.56705833005975        1.12041637564812        0.00078734814800
C           -2.42341090273273        1.89269053149043        0.81564807326050
C           -2.44739587956566        3.34218633050155        0.38378612325998
H           -3.42403320374482        1.46743591289444        0.62079201657610
C           -2.46171374510255        3.61184117655664       -0.98025777829988
C           -2.47648828295684        4.40400556287884        1.27623553388429
C           -2.47712779449517        4.91258833455974       -1.44521192391431
H           -2.43573261763535        2.79117314536699       -1.68240050499126
C           -2.50118626111099        5.70691252052319        0.80964671906718
H           -2.46083675657431        4.23122898505571        2.34037752108463
C           -2.49715683027014        5.96678223567079       -0.54880023126210
H           -2.46955477888721        5.10077637543514       -2.50852277385462
H           -2.51255658687104        6.52367810676680        1.51638269621927
H           -2.50402241523545        6.98523118849966       -0.90776155360644
C           -2.09142318135074        1.65570812765174        2.29585990028767
C           -2.07101102006312        0.23369393295767        2.56371539776235
H           -2.84941647787523        2.12934424554652        2.92330970727430
H           -1.11029083001165        2.08210499481681        2.51380929642301
C           -2.06564055050311       -0.95220016242913        2.72330763826555
H           -2.06070910129614       -1.98629681420387        2.89814675421279
Cl           0.74470891290524        1.90295160429832       -2.14083751610083
Cl           0.50230548466030        3.01800582799024        0.71962962355769
O            1.05450835691959        0.40033909784489        0.75988045836332
O           -0.14587436365363       -0.37583821675959       -1.25754864873074
C            1.48571305862082       -1.88530897808124        0.35302535584000
C            0.11724442698434       -2.20593936711354        0.16992372822863
C           -1.99289225322030       -1.71291416918188       -0.85885232464890
C            3.23663713201183       -0.22658347531537        0.30933799338495
C            4.20614874551704       -1.21003814962649        0.24861781744711
C            2.47877515972280       -2.88504616931590        0.43890658706082
C            3.80057796875992       -2.56380825889514        0.39007977734373
C           -0.45222049374865       -3.37812976740738        0.71242727419177
C           -1.77141884305874       -3.66366941211776        0.53053137007089
C           -2.58465296914933       -2.80773657936513       -0.24818463091329
H            2.16690516151980       -3.91602909374558        0.46175693470850
H            4.55384676504563       -3.33508589753616        0.40315245019184
H            0.16701388240481       -4.00663707065946        1.33115455640672
H           -2.21709325231912       -4.53063347379452        0.99322053402566
C           -4.01929151329975       -3.08993596360772       -0.37166002628967
C           -2.67933250645686       -0.87942403941030       -1.88376945521976
N            1.93639678296361       -0.58110223325172        0.41595413821346
N           -0.70034692182420       -1.42941064394376       -0.62030179461870
C            3.53348193696299        1.22980799884615        0.35807554663783
C            5.62913490520733       -0.90511272627926        0.05848449472818
C            6.05126681510986       -0.05602351786151       -0.96391672834977
C            6.58811859195545       -1.49985320386919        0.87655023496464
C            8.34060421317900       -0.38340572633183       -0.32211344974901
C            7.93181414900220       -1.23580972150262        0.69000170396315
C            7.39640957399212        0.20084822368310       -1.15011830414481
H            5.32116109717086        0.38220184061700       -1.62704293671677
H            7.70977893658190        0.85825250604492       -1.94732952244361
H            9.39059234593322       -0.17805437228793       -0.46692115920368
H            8.66355679802812       -1.69537084608102        1.33789703535483
H            6.27264566254456       -2.15292383008236        1.67717783254693
C           -4.46819973878656       -4.37075261248461       -0.68668675637560
C           -4.95743050717005       -2.09007715491018       -0.11722414551525
C           -6.74647752770044       -3.63673203919338       -0.52103556888940
C           -6.30966244163560       -2.36392489390489       -0.19085563486201
C           -5.82208554671265       -4.63846725540433       -0.76686989412385
H           -3.74922954082547       -5.15119563587589       -0.89029516704460
H           -6.15812193369284       -5.63261252265189       -1.02249207770720
H           -7.80349303970115       -3.84811062431736       -0.58168807197579
H           -7.02686326216141       -1.58303274321418        0.01448937813466
H           -4.61519523386212       -1.10644531735433        0.16706267454055
H            2.95795709071581        1.69989289646983        1.15458680458046
H            4.59237621620592        1.40407029691060        0.51857870338021
H            3.22481376672365        1.70957266500805       -0.57138830090646
H           -2.90532381000214        0.10589484879438       -1.48360536337973
H           -2.00404143702226       -0.72950229818574       -2.72572781393092
H           -3.59509094888780       -1.35697497886038       -2.21814310340880
