71
 energy: -116.476711216047 gnorm: 0.000836771687 xtb: 6.5.1 (b24c23e)
Si          -0.02798780320565        0.96150573382954        0.14405373937961
O           -0.56204340291584        2.48151865689217        0.02190511506761
C           -1.45144095216898        3.28253361476919        0.75450847419784
C           -2.47327111864415        3.89728751367218       -0.16740320626943
H           -1.95547933696661        2.67648604322258        1.51617025237931
C           -2.17331472782808        4.12476174582024       -1.50324336119069
C           -3.71754708278997        4.26907629769251        0.32557287674876
C           -3.10851930844370        4.71215975500656       -2.33721006062670
H           -1.20797873718298        3.82641774681816       -1.88236849429360
C           -4.64824926796596        4.86353830758140       -0.50751817127256
H           -3.95608366187870        4.08815869777550        1.36426784876296
C           -4.34593972781428        5.08576163575655       -1.84096490527742
H           -2.86856644228648        4.88115237963334       -3.37695775829022
H           -5.61365031766252        5.15056440091965       -0.11696648491075
H           -5.07496457659760        5.54739625630531       -2.49109623160111
C           -0.63248361317287        4.38981583382324        1.45135912874617
C            0.30673938508715        3.80813154452391        2.38426677229606
H           -1.31406615044952        5.06480157769636        1.97443910879989
H           -0.08789024688551        4.95097692216850        0.68711904945330
C            1.07998372523835        3.26545786969915        3.11860452301636
H            1.75203273785235        2.82064768722558        3.78988309203779
Cl          -1.34807727823160        0.40617470140176        1.80047892993608
Cl           1.45987533967297        1.55164928219587       -1.31020893519680
O           -0.63502407907899       -0.17869197597783       -0.96499107701370
O            1.08138720400616       -0.04412009443546        0.99705879878457
C            0.20098808336194       -2.30559922098070       -0.39094074756199
C            1.56347618355366       -1.88455501409178       -0.36266583615147
C            3.28266827266545       -0.34254261784408        0.33343996235691
C           -2.16817701981181       -1.84535390504725       -0.48000459085331
C           -2.47156193503850       -3.17327076098894       -0.24506915904680
C           -0.11307716798614       -3.67612803274157       -0.27019774618311
C           -1.40365442232815       -4.10406246892492       -0.18790281488966
C            2.56894569791902       -2.67783159095545       -0.95348415813491
C            3.87413457148182       -2.28594811242109       -0.94709227893216
C            4.25720806310188       -1.07905420614535       -0.31357545596881
H            0.70003397492785       -4.37479790551627       -0.16072224998630
H           -1.62715249792560       -5.14781022508173       -0.03490463212008
H            2.26965688189680       -3.56900402438865       -1.48039609384484
H            4.62463420937488       -2.87113494667870       -1.45428668487600
C            5.65794800266532       -0.64383359623633       -0.37663875383314
C            3.56085384923690        0.85605663367258        1.16941832163966
N           -0.87797222670753       -1.45950772912211       -0.56576451544312
N            2.00138586555749       -0.75663260531414        0.29603658651633
C           -3.19056156064046       -0.79615361588079       -0.74132603939623
C           -3.84801807034950       -3.64547587675238       -0.05250981019507
C           -4.69494289816358       -3.01769398465588        0.86017752068490
C           -4.31054279202459       -4.76369317957337       -0.74381651397574
C           -6.43352671970852       -4.59568239390735        0.36016080341203
C           -5.59619473578478       -5.22986721638166       -0.54274227845549
C           -5.97692227002997       -3.49269920913208        1.06338733935566
H           -4.33144775308442       -2.17413929861149        1.42693086396993
H           -6.62212784677037       -3.00236827131165        1.77717276245714
H           -7.43657207838837       -4.96265036737046        0.51826865612400
H           -5.94676000000032       -6.09123838291778       -1.09224413523691
H           -3.66355898293186       -5.25315852021034       -1.45743066630533
C            6.68614195049952       -1.53440461290952       -0.07491131665523
C            5.98032543379740        0.64920108918821       -0.78658681537061
C            8.31864589953331        0.15555351668773       -0.55722493156108
C            7.30254390623904        1.04206443179819       -0.87599561290834
C            8.00658817399991       -1.13376977579356       -0.15870189284645
H            6.44468183312618       -2.53735986232568        0.24676798466316
H            8.79536699790725       -1.82953111386143        0.08759240750431
H            9.35059024154367        0.46630718014876       -0.62407838640352
H            7.54228220171131        2.04400590361789       -1.19979193458730
H            5.18805504782128        1.32855015482022       -1.06120823137600
H           -2.89625143091243       -0.20641069585102       -1.60832593587346
H           -4.16513013129128       -1.24239182508102       -0.91055511502848
H           -3.24244086609792       -0.11565000010365        0.10884581972956
H            3.21825121260337        1.75223293312665        0.65294005481932
H            2.99981910558134        0.78465179997301        2.09999663113373
H            4.62231218617958        0.94006738805428        1.37922359596966
