71
 energy: -116.480747304553 gnorm: 0.000769965369 xtb: 6.5.1 (b24c23e)
Si           0.27221892743279       -1.17387572322037        1.40189710312770
O           -0.60289018706433       -2.27216579482920        0.59685366035555
C           -0.78733920923990       -2.56398736303835       -0.76984297711085
C           -2.22724579500506       -2.30244194346477       -1.13426829387055
H           -0.12937828461069       -1.93346271523859       -1.37316402150936
C           -3.24116650737047       -2.72845249948707       -0.28386604657800
C           -2.55741221104573       -1.64352708236923       -2.31057268216596
C           -4.56712023601948       -2.50830235986156       -0.61299471670815
H           -2.97845999463133       -3.22128073611603        0.64040542197024
C           -3.88410501449624       -1.42838651268176       -2.64186472888112
H           -1.77192777805475       -1.30024139083385       -2.96902401365810
C           -4.89066894576836       -1.86374679079587       -1.79573676364746
H           -5.34844962420261       -2.84011240191142        0.05454322677664
H           -4.13354030774781       -0.91521533952574       -3.55908467925892
H           -5.92503055037381       -1.69623555932794       -2.05730046434497
C           -0.43957329939236       -4.04596470142620       -1.00711272510149
C            0.97993540730973       -4.27479405926721       -0.84933842245358
H           -0.75307341679658       -4.33007131226307       -2.01566251439600
H           -0.98664151532451       -4.64975663865799       -0.27912537899525
C            2.15954053582978       -4.41865178204230       -0.71013260906689
H            3.18925303329859       -4.57496211369319       -0.58847895269088
Cl          -0.59682107632541       -1.86107857008122        3.21662373599327
Cl           2.20244992762746       -1.35704659482069        2.13087800911938
O            0.90803928824101       -0.48369586660234       -0.20888105407676
O           -0.35066165706964        0.37568690358059        1.75579809389095
C            1.34583505676104        1.80030983300796       -0.03249368539282
C           -0.03507838794341        2.07563471379713        0.14262751471080
C           -2.23268474833314        1.33988428140461        0.81964522297534
C            3.09511726692290        0.21876076201752       -0.48562207966229
C            4.04566843246160        1.22794325998543       -0.50756115289492
C            2.29864643459463        2.83721292241777       -0.12125724289741
C            3.61688415107207        2.56203863321436       -0.32457880675136
C           -0.63196585301893        3.22286484125500       -0.42443688736799
C           -1.98372272853448        3.37895145010720       -0.43194507110834
C           -2.82569602507877        2.38755197900259        0.14122770881439
H            1.96680107368169        3.84915151286569        0.04167954626335
H            4.34867407900895        3.35415736904190       -0.33311392877450
H            0.00415630643613        3.93590597902010       -0.92231536372777
H           -2.43513449743019        4.23146814872150       -0.91337277252585
C           -4.28088936109690        2.52398015058941        0.01392572919835
C           -2.98231052289433        0.34452032853203        1.63205863035173
N            1.80972086201445        0.51559492970056       -0.21244823447486
N           -0.88452697262056        1.23696910742300        0.83986806961533
C            3.40031783915741       -1.18879845909424       -0.86248731248877
C            5.47389737493954        0.95364333094279       -0.70664211880455
C            6.12293198261308       -0.02586133126859        0.04420923153502
C            6.21464455683362        1.70980940260105       -1.61345743341324
C            8.20238127562467        0.49817209225290       -1.03517441001696
C            7.56716521895497        1.47841587209431       -1.77972457500047
C            7.47702780667703       -0.24823293856675       -0.12058991731006
H            5.56451478923606       -0.58849210403270        0.77645905292769
H            7.97059136126324       -1.00491527243368        0.47108573793617
H            9.25960201635291        0.32050376921384       -1.16393659418977
H            8.12846122525853        2.06506033243778       -2.49227943819997
H            5.71977081621039        2.46759514985837       -2.20405468250560
C           -4.89631254244965        3.74638822346293        0.28020487036206
C           -5.06702176876860        1.45472918961400       -0.41408880369436
C           -7.03765841539594        2.81881554847715       -0.27677313122117
C           -6.43335699037593        1.60439080762957       -0.55736649307670
C           -6.26377409741524        3.88920973409455        0.14094940743133
H           -4.29912683414154        4.57934760932993        0.62181828910111
H           -6.72875669969944        4.83894029056395        0.36098208611495
H           -8.10584762499708        2.93206236198901       -0.38552091823491
H           -7.02960192232656        0.76847662853168       -0.89211447630510
H           -4.59941717110851        0.51304514057534       -0.65831416604647
H            2.58073165065594       -1.59769285511474       -1.45132892556019
H            4.32558567821431       -1.23383861324956       -1.42921868071117
H            3.48888875760226       -1.80851809599497        0.02804207386782
H           -2.93824323775388       -0.63826572997608        1.16137546661307
H           -2.51763497559197        0.24053254036895        2.61229317446461
H           -4.01980114477169        0.64107612156795        1.74646428335811
