71
 energy: -116.479304785644 gnorm: 0.000672338870 xtb: 6.5.1 (b24c23e)
Si           0.22117073817431        1.78502092713373       -0.67534662814677
O           -1.36426483075885        1.90366367835058       -0.33106215237206
C           -2.23663864211433        2.21736340211222        0.73504875368092
C           -2.01538504067233        1.25282743823748        1.87495222034701
H           -3.23766156281009        2.04236503434068        0.31076043419194
C           -0.82461942986461        1.25538659370242        2.59080824227599
C           -2.98693869607137        0.30843477501635        2.17983170424234
C           -0.60314301616072        0.31024366747882        3.57665434009246
H           -0.06261567263198        1.98451099611289        2.36528203267752
C           -2.77088369299275       -0.62476905219580        3.17826392017405
H           -3.91783927622563        0.30842113746132        1.62989231023839
C           -1.57352082524924       -0.63209653321772        3.87220712641826
H            0.33081471326724        0.31348772946341        4.11911957209895
H           -3.53589869994293       -1.35061906078364        3.41382867669786
H           -1.39964502075042       -1.36707995904555        4.64457614135225
C           -2.16337216015357        3.68383784920015        1.18726378903629
C           -2.47596504118025        4.56568895191242        0.08344939018103
H           -2.88491090809011        3.82571218352909        1.99689367623511
H           -1.16248815398007        3.91657475379206        1.55184933129784
C           -2.73500540320104        5.24503567035818       -0.86642523606243
H           -2.94478856235090        5.87044943615456       -1.68166851651162
Cl           0.85476535006781        2.37365702041926       -2.52977476189493
Cl           0.94428047950071        3.55695114231847        0.31591416470307
O            1.23674543832352        0.96381048228947        0.42215037681612
O           -0.09744523875086        0.16167920882250       -1.50403436931843
C            1.18427230606663       -1.40020426960249        0.37237257819608
C           -0.21153104962753       -1.49333427409461        0.14400576211741
C           -2.12068615249248       -0.90680128956810       -1.18874021376383
C            3.23274299385013       -0.15222854589383        0.10042156144054
C            3.98624956913068       -1.29908991232592        0.25879592595941
C            1.95784217368751       -2.53630198437666        0.69695530749116
C            3.31733401845549       -2.49229889258270        0.64647824593747
C           -1.01221562140791       -2.42953785441357        0.83074982398118
C           -2.32673515835107       -2.59011237535990        0.51679119953066
C           -2.90364561169921       -1.84781975574279       -0.53901226923031
H            1.44685872901370       -3.46197797003923        0.90407049510524
H            3.90215897542424       -3.37643972806181        0.84359763721746
H           -0.56653092815462       -2.98557458988768        1.63831283307921
H           -2.93670436151535       -3.30082015374959        1.05128977157309
C           -4.30502323030660       -2.10955145206579       -0.89889397837296
C           -2.61257153400027       -0.03163949606156       -2.28789780108113
N            1.88741981143835       -0.22009305460317        0.22254494524435
N           -0.83136831627360       -0.74422841344276       -0.83165004043361
C            3.80393481331927        1.20646262132797       -0.10776181913612
C            5.43997504032675       -1.32631570781172        0.05961441080074
C            6.01545039654189       -0.79786340210940       -1.09561564443654
C            6.26695311994490       -1.92657018698566        1.00771827663922
C            8.19733375085765       -1.44358772919945       -0.33243297606819
C            7.63438772332340       -1.97893234956579        0.81436761950091
C            7.38280736819957       -0.85750513472741       -1.28748157656980
H            5.38256864023670       -0.36249976615426       -1.85416725972706
H            7.81484689899660       -0.44770916853360       -2.18838092606305
H            9.26558595898253       -1.48611129868385       -0.48278120833085
H            8.26452875206823       -2.43829240618521        1.56174844285670
H            5.83401795920045       -2.33211729737693        1.91067701326440
C           -4.67842718377530       -2.40317324801726       -2.20937120385475
C           -5.28215550081077       -2.12208745397202        0.09489779416380
C           -6.96447363624105       -2.66605047454716       -1.52577455348279
C           -6.60125559375440       -2.39054745580878       -0.21781422025863
C           -5.99784287636310       -2.67845419707463       -2.51755293800259
H           -3.92557973852777       -2.44204467656616       -2.98232067015228
H           -6.27252668147042       -2.90785998493523       -3.53656859167211
H           -7.99489213409180       -2.87646278395618       -1.76965181675231
H           -7.34925260439625       -2.38537535260893        0.56136648066779
H           -5.00277059475569       -1.90226282215840        1.11483807063895
H            3.37599199311461        1.90229114545997        0.61374869170980
H            4.88392998424665        1.19431850900285       -0.00564497065159
H            3.53473997866061        1.58007604079123       -1.09660873139884
H           -3.68793009148463       -0.11572077891244       -2.40259228035425
H           -2.34533170389322        1.00154467065445       -2.07499056198874
H           -2.11866249707550       -0.29749777244621       -3.22254417378107
