71
 energy: -116.480652169308 gnorm: 0.000523506294 xtb: 6.5.1 (b24c23e)
Si          -0.30580728183374        1.27348048334395        1.29703887521979
O            0.50618863334030        2.32830303402785        0.37471821037386
C            0.57574848299457        2.54861153684884       -1.01633853056097
C            1.99239860283632        2.31419112759257       -1.47604592079651
H           -0.09832314437432        1.85947253418818       -1.53059598292735
C            3.05162693022359        2.85140516086720       -0.75365613293493
C            2.25686186935409        1.55862772179418       -2.61001453386352
C            4.35560108616532        2.64422480370759       -1.16774019251164
H            2.84345096798607        3.42115238546517        0.13983613454874
C            3.56116406323089        1.35579507314226       -3.02682677868722
H            1.43722277865423        1.12875293779230       -3.16844362175175
C            4.61218561903201        1.90085755235602       -2.30840476341691
H            5.17280230636615        3.06251535912247       -0.59887840575959
H            3.75803555883531        0.76679040053513       -3.91062133588740
H            5.62913191480998        1.74174933299604       -2.63549741173686
C            0.14047028750977        3.99761030618119       -1.30446465980044
C           -1.25893189914969        4.17813305115678       -0.98524080373075
H            0.31730907017528        4.22235012432876       -2.35995364640012
H            0.74088000508353        4.67155899203776       -0.68911757889546
C           -2.41844834382068        4.27340568496267       -0.70588233121665
H           -3.42900776017472        4.38933267624789       -0.45090566122094
Cl           0.54795628590237        2.17288562645316        3.02283089406906
Cl          -2.23427852079434        1.41609382041981        2.03646209944081
O           -0.91999893408031        0.40142220262435       -0.23566116101472
O            0.40520713694062       -0.20191249730836        1.77667269290400
C           -1.20787260378284       -1.88262690458453        0.14344817851016
C            0.18921749646218       -2.05250951607934        0.32274937335552
C            2.33794746871209       -1.10104661728500        0.87623070834437
C           -3.05771444773170       -0.45974647149695       -0.42403353286532
C           -3.94051206931762       -1.52618928187272       -0.35527843567238
C           -2.09300883116906       -2.98173335620000        0.15299858877656
C           -3.42655301208730       -2.80986294757158       -0.06346977987544
C            0.85810087551530       -3.20407761244865       -0.14716417974649
C            2.21751548325261       -3.26351411700628       -0.17044067667143
C            2.99374470877479       -2.16249859521658        0.28248055564543
H           -1.69607732190136       -3.95278990836530        0.39808045280819
H           -4.10607827995533       -3.64507767842337       -0.00114579773342
H            0.26793143575602       -4.00485663064061       -0.56103727741658
H            2.72266671405099       -4.12444785147664       -0.57815748589760
C            4.45215164741878       -2.20051027202841        0.12605818182755
C            3.02638030705870        0.02131369270900        1.56792663232478
N           -1.75455332558444       -0.64966658828483       -0.13892716961198
N            0.98700115568497       -1.09778716709861        0.92538906843975
C           -3.45458595914461        0.88969245408208       -0.91195384477473
C           -5.38298180368787       -1.36110754870002       -0.57294787440652
C           -6.09699610998412       -0.37278120506162        0.10362456158741
C           -6.06806084507245       -2.22619844686528       -1.42418392712187
C           -8.13159203997398       -1.10318683102531       -0.94050085047994
C           -7.43114546286171       -2.09254543692193       -1.61075201831187
C           -7.46116966389721       -0.24882620977501       -0.07990800999784
H           -5.57905311709643        0.27623244764252        0.79300106431499
H           -8.00557151369850        0.51586629005769        0.45413907808935
H           -9.19676196132354       -1.00149312660074       -1.08515221702718
H           -7.94933301664418       -2.76257762987639       -2.28122566417761
H           -5.52189780875630       -2.99170482589995       -1.95684717780459
C            5.16845142663826       -3.33785995723435        0.49600486249015
C            5.14077924171679       -1.12312461797565       -0.43028013487081
C            7.21649107645401       -2.30911625528148       -0.21318943547958
C            6.51138071180524       -1.18032600952242       -0.59726286115618
C            6.53976346993936       -3.38777655196151        0.33228664251319
H            4.64668335755152       -4.17482117557014        0.93688396192845
H            7.08395199789182       -4.27084904359564        0.63343503093048
H            8.28783540795257       -2.34976735682251       -0.34066809722348
H            7.03182026912838       -0.33945145412205       -1.03136168292283
H            4.59370343862407       -0.25078775869181       -0.75436942457387
H           -2.67181690407899        1.29400672107466       -1.55147917428280
H           -4.38983199127670        0.83204239554507       -1.46060746754476
H           -3.56494406252019        1.57727798939972       -0.07550320793681
H            2.88907237706961        0.94839381602401        1.01035231735741
H            2.58152408695667        0.18100679818957        2.54990999373669
H            4.08714328192024       -0.18079507802547        1.67336069915778
