71
 energy: -116.476982353244 gnorm: 0.000541848089 xtb: 6.5.1 (b24c23e)
Si          -0.07735969682318        0.92709568207606        0.35984531157956
O           -1.10397465964089        2.13518165280930       -0.07167855202077
C           -0.97526696413404        3.52593252050094        0.00220805026839
C           -2.17684810657574        4.16471902469742       -0.64735260711791
H           -0.05697035038265        3.82999196124154       -0.52216430086940
C           -3.43491501010213        3.60178171402847       -0.48078664729120
C           -2.04649423658550        5.33541224486452       -1.38136110731359
C           -4.54708906676029        4.19847653261059       -1.04640976166122
H           -3.52782008932573        2.68852669193848        0.08662646820240
C           -3.16074262900030        5.93544259903105       -1.94119196545143
H           -1.06845420007228        5.77555975937692       -1.51585125481545
C           -4.41281628691052        5.36808534199836       -1.77534061230676
H           -5.52208725205463        3.75175268959257       -0.91534151631232
H           -3.05086664056069        6.84630213526004       -2.51163647192320
H           -5.28140582861910        5.83605483735880       -2.21525944593066
C           -0.88558794799989        4.00256576184543        1.46955200259960
C            0.38026926224476        3.64516036240393        2.06706401243916
H           -1.00995791904906        5.08833701637130        1.49478450772699
H           -1.69739058317094        3.53449161667665        2.03213047134534
C            1.43814780878766        3.32768126552417        2.52855440503703
H            2.35782453893513        3.06526573162979        2.95886859993050
Cl          -1.05497005870535        0.59662407617242        2.20308386509098
Cl           1.57422792371999        1.77885241046577       -0.68612560782738
O           -0.66911442838827       -0.14614572309872       -0.81299914782570
O            1.00932265622724       -0.33374477163443        1.06293687093430
C            0.10409186378923       -2.35989945913399       -0.57501765213122
C            1.47446144992061       -1.98567687966194       -0.51870125564665
C            3.21995130214935       -0.63447176414294        0.43679109377962
C           -2.22921250659925       -1.78700171140491       -0.33635339245553
C           -2.58557620279597       -3.12158881684784       -0.29947027939132
C           -0.27609492690426       -3.71529443626145       -0.67599036190947
C           -1.57764429366563       -4.09226449817669       -0.54123839708436
C            2.46147749748494       -2.70219895792620       -1.22752453343891
C            3.77586485673882       -2.35147017683018       -1.15030513239440
C            4.18424157615239       -1.28682276903013       -0.31344836028005
H            0.49940981628540       -4.45607167232215       -0.78032958040881
H           -1.85202504248965       -5.13471804244299       -0.56486667123145
H            2.14273737645257       -3.49378414440999       -1.88540414489515
H            4.51679435779864       -2.86719153454294       -1.74049876418176
C            5.60077842347771       -0.90430783502438       -0.27200509242499
C            3.53693421236593        0.36773856323908        1.49102822917378
N           -0.93377581346690       -1.44900437331017       -0.51750717393745
N            1.92338291496313       -0.96973368187087        0.29557173988395
C           -3.20131311291720       -0.66249115873996       -0.27976338158723
C           -3.96043336562913       -3.56292694040292       -0.03597361253792
C           -4.67522471433886       -3.06895005414200        1.05498369300423
C           -4.55846416751030       -4.51942507068826       -0.85479983517450
C           -6.55157236486536       -4.45090887461667        0.47859762806396
C           -5.84569717912668       -4.95441944708724       -0.60166472448167
C           -5.95998988504491       -3.51168296662679        1.30755308247863
H           -4.20818295373407       -2.35612906893993        1.71740877146668
H           -6.50165102426132       -3.12420359718655        2.15773845688771
H           -7.55681679035590       -4.79217472035763        0.67557425174247
H           -6.30112732386326       -5.68826092037771       -1.25038023508156
H           -4.01676814365442       -4.90383701129299       -1.70695084040911
C            6.58861272927121       -1.87747125636761       -0.13262943517271
C            5.98265297638692        0.42828408036884       -0.42306619097266
C            8.29513355228314       -0.19697652876613       -0.26680534269073
C            7.32044423386462        0.77551528489340       -0.42115755630283
C            7.92489384751871       -1.52404404155335       -0.12404514720546
H            6.30250864904434       -2.91213937135408       -0.00903628372491
H            8.68087188092660       -2.28648362258992       -0.00561703917430
H            9.33950635225704        0.07726519907033       -0.26255648323387
H            7.60485502906176        1.80999831306591       -0.54494662756177
H            5.22505756888870        1.18248308972161       -0.57106892928836
H           -2.97583297301873        0.05598073954505       -1.06628437759252
H           -4.21841939645022       -1.02445553547011       -0.38681003880985
H           -3.09524593583352       -0.13583023931642        0.66905337303583
H            3.31738771829426        1.37114538659838        1.12851970313587
H            2.90124232914307        0.18682643892041        2.35703065010520
H            4.58358436694736        0.30412895004735        1.77319663357001
