71
 energy: -116.480367201152 gnorm: 0.000512759155 xtb: 6.5.1 (b24c23e)
Si           0.05040982103170        0.99570100021730        1.42664785243914
O            0.75898150635370        2.14838582065509        0.52153724153735
C            0.60396398901543        2.47713616985047       -0.83749639602840
C           -0.72043277397872        3.14544427993086       -1.09834094233755
H            0.66674271893249        1.56160668150388       -1.43901745414182
C           -1.34927789127800        3.88197509408270       -0.10501229624221
C           -1.32428813749700        3.02681691640547       -2.34420985563067
C           -2.57397452133698        4.47843130606137       -0.34848595308755
H           -0.87978956529499        3.97230633495462        0.86243368288030
C           -2.54409676306675        3.63192193826448       -2.58984497916007
H           -0.83717508569041        2.45239947324467       -3.12050495205792
C           -3.17352066886516        4.35499758650316       -1.59010562111939
H           -3.05990121002023        5.04151071497280        0.43410493616109
H           -3.00754256089442        3.53229189782610       -3.56069016490819
H           -4.12939368573842        4.82011006811923       -1.78014040293325
C            1.77428070823633        3.40537771075317       -1.22052060859121
C            3.00577174060845        2.65101294078118       -1.31075466688711
H            1.55979940814258        3.87951069376494       -2.18166908051115
H            1.86744803989165        4.17669629423766       -0.45290618380531
C            3.98452457592575        1.96539236005309       -1.38128636826508
H            4.86054144245681        1.39070725797788       -1.44096326826479
Cl          -1.80040098519684        0.84390648411775        2.36032750347083
Cl           0.94523402692519        1.85430043993487        3.15505642930193
O           -0.64962723317455        0.26925832402173       -0.12622933332588
O            0.91590014883315       -0.45187716108289        1.69183051622375
C           -0.57829751430749       -2.05783979586596       -0.10225873253210
C            0.84291155321339       -2.03117725469375       -0.06620684558092
C            2.89827000237644       -0.95120508632878        0.60588494739879
C           -2.66277635594512       -0.87241105758475       -0.24999089342599
C           -3.37225835577208       -2.06422541700927       -0.28048992679037
C           -1.28817819658932       -3.27015470158245       -0.21918138023171
C           -2.64945266211429       -3.27997788313830       -0.27388707984819
C            1.60576684539813       -2.92550009089277       -0.84435363034704
C            2.95833227423358       -2.79574354104503       -0.94019817401394
C            3.63260234781323       -1.77093706391344       -0.22432607616215
H           -0.72895512802827       -4.19102506121601       -0.19650434790417
H           -3.19083704871278       -4.21230842553019       -0.29878590632866
H            1.08237900215460       -3.66994724128985       -1.42195049684850
H            3.53368526789169       -3.45918888927339       -1.56619840756887
C            5.08625934724769       -1.62187401943991       -0.40813570607215
C            3.47229582034924        0.14667601835378        1.42647565538325
N           -1.32246226551299       -0.89793330635336       -0.11796016789144
N            1.55757574193393       -1.12605621323008        0.69414444603628
C           -3.29440757003448        0.45564922519192       -0.48099817071371
C           -4.83850727480996       -2.09999377727811       -0.32248947071961
C           -5.59739196671177       -1.32801311912094        0.55701493916007
C           -5.49576157995145       -2.94990008766347       -1.21093051527710
C           -7.62185093304381       -2.23518565147458       -0.36097363572005
C           -6.87630839752905       -3.01175470172557       -1.23251926022790
C           -6.97739650919624       -1.39808413887181        0.53546570352850
H           -5.09762157554455       -0.69579757017586        1.27458736096368
H           -7.55370785604648       -0.79935285105158        1.22505490548946
H           -8.70027942427359       -2.28586533738132       -0.37754178879926
H           -7.37298150229238       -3.66814796431795       -1.93204723958176
H           -4.91836441239357       -3.54739162397518       -1.90181964013532
C            5.97142150978558       -1.69399944916561        0.66473163830178
C            5.59566003608762       -1.43877956515903       -1.69183848095413
C            7.82875115684553       -1.36129348779847       -0.81954290361751
C            6.95669877230096       -1.30220957971574       -1.89419695936568
C            7.33273152933508       -1.56432304110913        0.45761741201956
H            5.59040166897213       -1.87297517517115        1.65915929689436
H            8.00963856093297       -1.62363539067747        1.29696156167581
H            8.89134679256323       -1.25417694007218       -0.97775204901743
H            7.33808701891821       -1.14738322094521       -2.89297780097620
H            4.91337205782255       -1.38376346496085       -2.52847122522789
H           -2.64900544772082        1.05767851794040       -1.11934761844682
H           -4.26797628478189        0.33415720890521       -0.94618283306942
H           -3.40809062151922        0.99758642891066        0.45619798772564
H            4.53948664694412        0.24141176453411        1.26291871832736
H            2.99096277786091        1.08908244365377        1.16813980345515
H            3.27290210753129       -0.02577304844278        2.48374235231989
