71
 energy: -116.480383966743 gnorm: 0.000505930324 xtb: 6.5.1 (b24c23e)
Si          -0.17194773559268        0.94259187869429        1.45752308918694
O            0.14463477970537        2.26334815324923        0.56419488112827
C           -0.24459488901263        2.60846599556644       -0.74319362301951
C           -1.69634694766658        3.00891203458090       -0.79037695971359
H           -0.08449244676374        1.74917445443209       -1.40533149133744
C           -2.30762394530214        3.57045082973545        0.32149602515746
C           -2.43687178684916        2.81487803968788       -1.94970706252793
C           -3.64592752164740        3.91909385066830        0.28008188173559
H           -1.73169824079404        3.71847727590483        1.22207150929695
C           -3.77305977760031        3.17151015295460       -1.99276261122864
H           -1.96326165985619        2.37944913092426       -2.81945153510611
C           -4.38107216755442        3.72012271448176       -0.87592898795106
H           -4.11443985815562        4.34693355813689        1.15363425692242
H           -4.34225123022426        3.01458502797850       -2.89755294585700
H           -5.42598591179285        3.99109687524191       -0.90806462378009
C            0.66532699243950        3.76591716934980       -1.19984827099862
C            2.01111613344616        3.28343197285159       -1.42439679521071
H            0.26626680028573        4.19768353389678       -2.12107392857423
H            0.67169335262301        4.52949568744184       -0.41877641187031
C            3.09895944784643        2.81374076258554       -1.59470123549724
H            4.06531565125769        2.43218596997509       -1.74274183797202
Cl          -1.90043199637782        0.30462070907110        2.41533088715994
Cl           0.52061526626161        1.97280617369752        3.18643903292168
O           -0.67565462366759        0.05740416335484       -0.09532346150400
O            1.06708550064936       -0.20800167360018        1.67683634999726
C           -0.00219571886274       -2.17333516164076       -0.07127141261267
C            1.36423608043897       -1.78282131830428       -0.06333885637268
C            3.07698192630582       -0.18455848059551        0.53304377766497
C           -2.32395897444806       -1.56621792381867       -0.18718249626501
C           -2.70322920590695       -2.90031891151769       -0.20211863823373
C           -0.37881745505758       -3.52888066989270       -0.16629175900696
C           -1.69206342616998       -3.88914579753049       -0.19915345427997
C            2.32216747378216       -2.47075628000565       -0.83639748939301
C            3.59413572339744       -1.99999460606598       -0.96085316078954
C            3.98850859745547       -0.81216531031176       -0.28885796222039
H            0.39806825470066       -4.27531150386672       -0.14534627939026
H           -1.97592969821302       -4.92946191803389       -0.20908829793240
H            2.00291097730194       -3.34159554567307       -1.38544320626469
H            4.31454527641849       -2.51297359899365       -1.57810285042470
C            5.35405649587922       -0.30318614409929       -0.49990085504312
C            3.34962111889121        1.05871694923059        1.30037100782821
N           -1.02033280773361       -1.24421674215499       -0.07821894488480
N            1.83210894052834       -0.70421889153169        0.66164485083329
C           -3.28135936380828       -0.44750149212272       -0.40970444277468
C           -4.11087108552474       -3.31434568696109       -0.21944933455099
C           -5.02797451681657       -2.76395805965628        0.67559735323862
C           -4.53989593493645       -4.30913201949151       -1.09695060791049
C           -6.76175462777684       -4.17317195397332       -0.20331503919353
C           -5.85641884786564       -4.72986699501458       -1.09171096214828
C           -6.34161163161326       -3.19327843912925        0.68159198456597
H           -4.69699433016271       -2.02010854516906        1.38384587942532
H           -7.04081409357535       -2.76432591932016        1.38397368506966
H           -7.78917014571388       -4.50522119957170       -0.19786131809964
H           -6.17779866593316       -5.49550180222812       -1.78272258792740
H           -3.83957360855001       -4.73742922293710       -1.79977783564243
C            6.22875660211951       -0.09939858077619        0.56503493805545
C            5.80098135384262       -0.05686562316781       -1.79619960625670
C            7.94198509699866        0.62184968073462       -0.95381682213433
C            7.08345116076351        0.40919987592850       -2.01995713095507
C            7.51297863807260        0.35999484471778        0.33693421561287
H            5.90518840548681       -0.32337230082542        1.57058491850210
H            8.18260062160718        0.51237164455364        1.17037280147041
H            8.94336253134017        0.98541335816960       -1.12890948516974
H            7.41432099110240        0.60749035659570       -3.02901686783941
H            5.12853411934770       -0.21706300892609       -2.62741410572107
H           -2.82043236837076        0.30427197810879       -1.04911793108714
H           -4.19283240870239       -0.81824837892742       -0.86905157725839
H           -3.52676878961288        0.04457652546559        0.52976894297595
H            4.34781064531960        1.43158433018723        1.10148152661048
H            2.62448651246531        1.82363506018797        1.02338419803691
H            3.22480097613690        0.88311598750174        2.36856710653272
