71
 energy: -116.394767828412 gnorm: 0.000526207774 xtb: 6.5.1 (b24c23e)
Si           0.18390697493988        1.04483082979943        0.89642810956681
O           -0.99877416804111        2.27079737426545        0.38720786311610
C           -1.23766807407884        2.74280711333022       -0.76388984899497
C           -2.42394861989271        3.46022976848623       -1.06203886792680
H           -0.50484074411147        2.59667731274135       -1.55673722744009
C           -3.41467831270522        3.65832020928407       -0.07904849571281
C           -2.62923830501756        3.99472116271665       -2.34871951429040
C           -4.55789432299439        4.36218142536063       -0.37822130384563
H           -3.24587581340364        3.24520981412369        0.90400100111521
C           -3.77851107197323        4.69699126859065       -2.63262805170593
H           -1.87065613693246        3.85074961920890       -3.10360286916527
C           -4.74707026634703        4.88445488217191       -1.65300852724802
H           -5.31264000153496        4.51335711146865        0.37959004002835
H           -3.92985160102954        5.10769064708356       -3.62020900181224
H           -5.64522292557674        5.43801619810040       -1.88234503478202
C           -3.43031494073881        1.26662807290319        2.65134325300423
C           -2.26534503150764        0.74617533685357        2.40480244116602
H           -4.32936491381506        0.95550041784492        2.13995436079206
H           -3.55040635255219        2.02563387105770        3.40779617201960
C           -1.10194071802814        0.26841179640006        2.11554793464300
H           -0.74151680253609       -0.59417432707824        2.65944638998469
Cl           1.67531344480565        1.77192785348231       -0.60704999748854
Cl           0.99070163694512        2.34340181958428        2.39406240863288
O            1.25482968545815       -0.38631066569897        1.34171321147360
O           -0.37902051022396       -0.00054460634382       -0.60007594138083
C            1.68344277097225       -1.82787691596779       -0.38995778699106
C            0.29062883345923       -2.21143777135493       -0.39490632336759
C           -2.01481606465483       -1.59577182104521       -0.44022770454971
C            3.41065608013302       -0.46799906949943        0.53176325039423
C            4.33563531804180       -1.01111628692012       -0.35589545946638
C            2.61629367459753       -2.45581456821487       -1.21768477687233
C            3.92324275850619       -2.03943411743602       -1.21811276207951
C           -0.08125163770126       -3.55943485252558       -0.39379784675698
C           -1.40117356635918       -3.91881249997382       -0.33767878635550
C           -2.40082541532080       -2.92375372306442       -0.33090641224559
H            2.27437702997389       -3.22114050778566       -1.89576338330412
H            4.63680511658642       -2.47621726505716       -1.89891321796406
H            0.69789755225079       -4.30456262404105       -0.37608461416955
H           -1.68791072709057       -4.95613776118520       -0.27465271817328
C           -3.81024984064537       -3.31690273839443       -0.20788629854449
C           -2.95785335057322       -0.46719738880040       -0.67009493826482
N            2.13268490644228       -0.88003887730481        0.47869305578019
N           -0.70479695287800       -1.27206278184743       -0.44551668886388
C            3.76071004803496        0.47865957260648        1.61822287132506
C            5.72072075956132       -0.52533536750804       -0.41872283353960
C            5.98221529244920        0.83954460016734       -0.52593417470487
C            6.78511241214696       -1.42374718323132       -0.42686512852428
C            8.33897727628034        0.39301618713233       -0.62073798659585
C            8.08594501324110       -0.96506681215385       -0.52043345462971
C            7.28438673691687        1.29156374905641       -0.62842579889848
H            5.15820971290961        1.53502148247948       -0.55735229686637
H            7.47743181338461        2.35013986074676       -0.71672872215169
H            9.35551399670487        0.74918535863186       -0.69646452800539
H            8.90498885814849       -1.66919665658437       -0.51594571479986
H            6.59030674479409       -2.48295768396577       -0.33701314007291
C           -4.32667052430786       -4.34450599844431       -0.99453845483904
C           -4.63723730854106       -2.70533596558060        0.73382481962959
C           -6.46137486588684       -4.12018372558673        0.07631924727571
C           -5.95215278333682       -3.10749844019377        0.87316806986246
C           -5.64465214283180       -4.73759437432337       -0.85662267555971
H           -3.69500092746143       -4.81942362920394       -1.73126061203953
H           -6.03622783629089       -5.52890098760058       -1.47866256782022
H           -7.48973788798889       -4.43028884241835        0.18501207268771
H           -6.58222080314415       -2.63186344371392        1.60997621516702
H           -4.23409914069391       -1.93388332446552        1.37264942364978
H            3.20844514940821        0.21694070842708        2.51989533666929
H            4.82931683500801        0.47277031096021        1.80876190334475
H            3.44561874762458        1.48906623192035        1.35943328888551
H           -2.97892757374279        0.19329812364401        0.19604814992157
H           -2.59708370536910        0.12867663583022       -1.50904066238249
H           -3.95768349186557       -0.83273212194808       -0.88076673894624
