71
 energy: -116.482923847400 gnorm: 0.000394342252 xtb: 6.5.1 (b24c23e)
Si           0.36785914158911        1.71499680011622       -0.42038885764870
O           -1.23412868189816        1.68127194058158       -0.11382415326062
C           -2.09883746163580        2.61174666473222        0.49378575250556
C           -2.71851865982103        2.00378488438511        1.72561621259857
H           -1.52961191337442        3.50665947005588        0.76715925224680
C           -3.16139477280186        0.68807863535678        1.70542656532652
C           -2.86599456926927        2.75220555036875        2.88505237252833
C           -3.73413581981699        0.12499069753392        2.83118861258251
H           -3.04498751868848        0.10589161464456        0.80386414978514
C           -3.45187730289450        2.19216268494516        4.00671674118984
H           -2.51370254322022        3.77275207231090        2.90771608289265
C           -3.88479192387023        0.87726009521657        3.98339744850123
H           -4.06476831559463       -0.90389390227033        2.81074296519534
H           -3.56451168153720        2.78166524904075        4.90454006803830
H           -4.33568366182421        0.43912620051895        4.86183853245791
C           -3.19637374028128        3.00635498421132       -0.51615832564719
C           -2.58940284293528        3.52006708760376       -1.72564217138620
H           -3.80629649866118        2.12873161417530       -0.75028079248111
H           -3.83419582393739        3.76773517921728       -0.06102737465489
C           -2.00976870708490        3.89900585266901       -2.70150157155594
H           -1.51742582227073        4.24933682616682       -3.55854288527134
Cl           1.23389240579232        2.41571170299319       -2.14624030078152
Cl           0.84647848315867        3.46986658753167        0.72847703584170
O            1.29984992383829        0.88155118836744        0.73471820970870
O            0.18356198427823        0.16611901762534       -1.36415271841941
C            1.29874075593829       -1.47897457679246        0.54179530146669
C           -0.06310643629557       -1.58801524475690        0.16113631072572
C           -1.81742395536351       -0.98246446155765       -1.36325233350920
C            3.33637378389565       -0.18710876375991        0.52774162986306
C            4.09576729941179       -1.33091288528946        0.68368084604048
C            2.06183330254306       -2.61914356539706        0.87727551840483
C            3.41952447324684       -2.55244879878630        0.95010991160348
C           -0.91646364077716       -2.56873859579925        0.71055072260089
C           -2.18515484427036       -2.73448522721051        0.24374412928933
C           -2.65045984111668       -1.96135299787891       -0.84581335440270
H            1.55251469590474       -3.56217477926049        0.98874699150046
H            4.00200993202116       -3.43694590046579        1.15209513243259
H           -0.55286909883434       -3.15549092270266        1.53779345347971
H           -2.84162752950308       -3.47092035351094        0.68004752917940
C           -3.99830069092353       -2.22072212098852       -1.37576686302942
C           -2.19243935392447       -0.07720723901917       -2.48353559114951
N            1.98738718903442       -0.28023588360867        0.52965006339764
N           -0.58930077401165       -0.80387051321994       -0.84055312766172
C            3.89736109868757        1.18927356025880        0.45007785937469
C            5.56083971553714       -1.32768294165420        0.59828124852253
C            6.21339957015629       -0.72862208056981       -0.47899107228310
C            6.32320795498387       -1.97028712942021        1.57237019714220
C            8.34123197015276       -1.39299738660048        0.41038966400644
C            7.70197894950467       -1.99693524965769        1.48053990524046
C            7.59203125863852       -0.76277929317808       -0.56972766617610
H            5.63253546183666       -0.25791528238002       -1.25781777522243
H            8.08426073293325       -0.29851784225456       -1.41140327881835
H            9.41823169554864       -1.41628637337599        0.33885567555213
H            8.28095398273483       -2.49029978969038        2.24739183385169
H            5.82993679810387       -2.42976977918290        2.41657413536046
C           -4.20173173729713       -2.51639573605698       -2.72217243918863
C           -5.09253814817304       -2.21932733129351       -0.51357565877998
C           -6.55570952135882       -2.77371404171035       -2.33160257111911
C           -6.36192217499018       -2.48754125198313       -0.99037784667978
C           -5.47181897381988       -2.79148175810966       -3.19381149415321
H           -3.35638155281042       -2.55347073128651       -3.39310865809972
H           -5.61589366337518       -3.02421953346679       -4.23854952171368
H           -7.54699997388986       -2.98578892483695       -2.70293265331019
H           -7.20317651993361       -2.47308020725214       -0.31326247551173
H           -4.94590192069940       -1.98531131905914        0.53079862526720
H            3.40304433961086        1.82935770080797        1.18056816367294
H            4.96646078175695        1.18456949167779        0.63418328473005
H            3.69596145548152        1.62321935091028       -0.53017131821375
H           -3.24296935220696       -0.18018722084092       -2.73504672911164
H           -1.97864562288328        0.95513175552936       -2.21343906065858
H           -1.58198354846208       -0.30307052335022       -3.35784449419822
