71
 energy: -116.483774658278 gnorm: 0.000592832182 xtb: 6.5.1 (b24c23e)
Si          -0.03383775059997        1.36770339511165       -0.40361358541535
O           -1.53925361749903        1.09177904690570        0.16214769672379
C           -2.31782162612377        1.81624133110739        1.08232679894107
C           -2.92100102900126        3.05732531413366        0.47477358233040
H           -1.68818926886695        2.10546553898136        1.93217410676736
C           -3.16720928997357        3.14697915865605       -0.88663043718027
C           -3.25261147504037        4.12767915890727        1.29575337833745
C           -3.72776336867810        4.29259177355560       -1.42333843404255
H           -2.89779264900933        2.32754039936575       -1.53613819509799
C           -3.81985451411592        5.26894850346123        0.76087855273942
H           -3.04924707626772        4.06850221240629        2.35532818053768
C           -4.05836142522455        5.35441626592734       -0.60082893057257
H           -3.90172623048663        4.35435519660072       -2.48739688090419
H           -4.06737854607306        6.09854038637214        1.40678685194373
H           -4.49315272662039        6.24995813264942       -1.01967485266777
C           -3.42798325486768        0.86800011921978        1.58037324331269
C           -2.85003250575546       -0.25590148458052        2.28381531448123
H           -4.09272690233024        1.42159581950439        2.24773772221853
H           -4.00444845812228        0.50962895620445        0.72334713147890
C           -2.31396113676490       -1.16156746605528        2.85347249038240
H           -1.86610695673310       -1.95822252300048        3.36802166786707
Cl           0.38876927860284        2.13128066310933       -2.26399199476751
Cl           0.28308433887782        3.24279062420967        0.62190369810238
O            1.20446515566445        0.74983611673513        0.58718309891440
O           -0.11257254867646       -0.22602838684237       -1.28062266089127
C            1.72370083407421       -1.53998957915235        0.30891336661852
C            0.37096074985157       -1.95797178555086        0.21926185778774
C           -1.78056507848454       -1.76037424455909       -0.82520907455464
C            3.36726123562103        0.19816898933055       -0.01593982190686
C            4.38712394303390       -0.73335971620659       -0.04799600068932
C            2.77883984291206       -2.46993063716918        0.43315816476727
C            4.07354528223605       -2.08389332527992        0.26488616966243
C           -0.09786333502442       -3.10179240672689        0.89972855261162
C           -1.37926995450097       -3.53632275718221        0.74245647538800
C           -2.24532752799414       -2.87972864313301       -0.16037309062648
H            2.53201186327749       -3.50814418262614        0.58261962271206
H            4.87211048842939       -2.80686220766377        0.31060861722138
H            0.57144968124814       -3.59505860219174        1.58541644776502
H           -1.74406713897113       -4.39453493909864        1.28506346457017
C           -3.61042793023863       -3.40070819284948       -0.34344765706596
C           -2.59214708964814       -0.97954414099464       -1.79744641861027
N            2.10113864284739       -0.21277157420761        0.22195250296353
N           -0.52674937219512       -1.31859492864337       -0.60535309322843
C            3.57055914971212        1.66742283448487       -0.13458847079681
C            5.77377173867854       -0.37517141852072       -0.36919019497933
C            6.07732888873316        0.37209625880262       -1.50677194166369
C            6.81678323301639       -0.81531582618236        0.44396068678375
C            8.41767149996694        0.25248190226316       -0.98853247613878
C            8.12682742585283       -0.49805054350561        0.13875252420783
C            7.38941623154982        0.68129533525457       -1.81173573115780
H            5.28102212470189        0.68887131427754       -2.16315504853182
H            7.61100186499696        1.25801807393106       -2.69745517585817
H            9.44151577974885        0.49943738658634       -1.22600782322662
H            8.92456175472705       -0.83588196355617        0.78377551752937
H            6.59299726649920       -1.38788953888650        1.33236136266547
C           -4.06699435881724       -3.82430091711007       -1.58900532966512
C           -4.45320706615837       -3.50932574338119        0.75959717727223
C           -6.18058550521985       -4.43024795883810       -0.62751730709930
C           -5.73169985812341       -4.01520780435569        0.61554988811983
C           -5.34425101025239       -4.33647455152832       -1.72739095501087
H           -3.41027265197046       -3.76864714856046       -2.44492450841724
H           -5.68736920802212       -4.66575432953637       -2.69717989555956
H           -7.17847974626398       -4.82733301266853       -0.73839377165477
H           -6.38078604829318       -4.08500900977970        1.47583547896453
H           -4.10509505590661       -3.16717610465518        1.72316359626530
H            3.04894768231619        2.18020494609986        0.67303130142145
H            4.62595983132204        1.91711467051556       -0.10530766488179
H            3.13543216572096        2.03329484916553       -1.06546511391702
H           -3.60675654293520       -1.35921532240950       -1.85391943985728
H           -2.60436462824717        0.06284207539569       -1.48844869837889
H           -2.12510551011776       -1.01394383204134       -2.78158761536786
