71
 energy: -141.793219797452 gnorm: 0.000400360780 xtb: 6.5.1 (b24c23e)
Si          -0.23485323671130        0.77562334447311        0.44189856008909
O           -0.69698645872827        2.19385466994576        1.03403943227966
C           -0.43473360976931        3.53754202351779        0.69695852585972
C           -1.55612340768017        4.08699190918669       -0.14730308567387
H            0.51242257690213        3.60147155539257        0.14929217890470
C           -2.84353885712726        3.58467747472766       -0.01879961065772
C           -1.31010149487392        5.11537954320407       -1.04771692787794
C           -3.87131598863329        4.09933188173326       -0.78907097175019
H           -3.03246523375806        2.77893362976291        0.67351793604947
C           -2.34121326348886        5.63485337499273       -1.80949186194720
H           -0.30668312186515        5.50252288427556       -1.15476893760996
C           -3.62345645878830        5.12663727939851       -1.68293452997504
H           -4.86761037723703        3.69497477268205       -0.68838696073925
H           -2.14221657058043        6.43384046407268       -2.50885637364937
H           -4.42628201774819        5.52920521397855       -2.28324384346105
C           -0.30598933940324        4.32233682195289        2.01523286017430
C            0.85950284970192        3.87804278484849        2.74950682083792
H           -0.22387445199934        5.38844713528389        1.78918526485937
H           -1.20530789506183        4.15017112918309        2.61170831170136
C            1.83137116741023        3.46865043107076        3.31418841686043
H            2.67732563100632        3.12120729177869        3.82722741699099
Cl          -1.61360934825988       -0.12524188858828        1.82097406400161
Cl           1.19160078364134        1.56212137931684       -1.00989814010372
O           -0.80944521971843       -0.15667940533675       -0.90433326847632
O            0.91417109703590       -0.35332267948902        1.07159747150555
C           -0.16216693993011       -2.36955265539283       -0.52446759169096
C            1.22960979177388       -2.03108299540679       -0.52013071331808
C            3.05548741988516       -0.65637911452943        0.21227030119112
C           -2.47534053807942       -1.74392704299778       -0.61956534577948
C           -2.89119354900165       -3.02041296485234       -0.31000379252452
C           -0.57533851203360       -3.70893360237517       -0.39922680996170
C           -1.89116206945653       -4.03056472927300       -0.24747991815644
C            2.15336351930086       -2.78674404479678       -1.26540702686171
C            3.45733360735236       -2.40579369144485       -1.36986688839752
C            3.93768274311086       -1.27804735121650       -0.64574132884864
H            0.18679214155495       -4.46756328939532       -0.31685676186431
H           -2.19473809022417       -5.04468444019686       -0.04675993087900
H            1.77900893473110       -3.62309964353777       -1.83416892575573
H            4.13935377538552       -2.93058077719984       -2.01811437245083
C            5.30585772518643       -0.80433403961059       -0.87374837212463
C            3.52327766157305        0.30638148487880        1.28937960661585
N           -1.15796612732642       -1.43804566347948       -0.69818954931295
N            1.74721577797074       -1.00730535438836        0.24324658190176
C           -3.42281722422641       -0.66500110426189       -1.10956599531103
C           -4.27785453576395       -3.34462954173910        0.03222490112431
F           -4.60427514732936       -1.18620367991770       -1.48223856670618
F           -2.94606859022648       -0.08461439601320       -2.22123997918940
F           -3.70212028289620        0.30796401483868       -0.24865029823773
F            4.82997503787091        0.11979663755438        1.55902637777238
F            2.91163051379346        0.08918720253217        2.45866067522503
F            3.38650922194431        1.59836113275338        1.00366292266209
C           -4.94177790383633       -2.55567745409692        0.97232627565848
C           -4.91468861633893       -4.46126725730615       -0.50268881731763
C           -6.86371635133661       -3.98401288058183        0.81111249183689
C           -6.20566742664419       -4.77208476091435       -0.11882568067868
C           -6.22829254430799       -2.88022455864715        1.35721153010791
H           -4.43087359592991       -1.71126674667101        1.41132866858636
H           -6.73622045504921       -2.26969755135720        2.08790421511060
H           -7.87075843094281       -4.23170433559189        1.11124497550965
H           -6.70005953191426       -5.63133680250739       -0.54682822364586
H           -4.40718332822088       -5.06518160161381       -1.24054649448166
C            6.37767640782407       -1.69396039902670       -0.87472990589172
C            5.53160557097812        0.54300527523365       -1.15521668173669
C            7.87807479880766        0.10219017651392       -1.39863254583918
C            6.81318011603175        0.98836544866904       -1.41634539339822
C            7.65755655359914       -1.23834730290487       -1.12820203360491
H            6.20839593500124       -2.73559650277796       -0.64453505062893
H            8.48579212626247       -1.93092338855474       -1.11233701040777
H            8.87893165361647        0.45529038753225       -1.59617646843978
H            6.98061076674247        2.03204512240742       -1.63414878350741
H            4.69788423644905        1.22846476030409       -1.18764201455040
