71
 energy: -141.800700067150 gnorm: 0.000476796539 xtb: 6.5.1 (b24c23e)
Si          -0.28679148725457        1.70437750961166        1.03698048888308
O            1.24432886066364        1.60226408615727        0.49469769705511
C            2.07329498765001        2.54569094847369       -0.16646898244667
C            2.63086724844272        1.80998410296771       -1.36490718257497
H            1.44783052187535        3.38027979399989       -0.50977187416411
C            1.72323820412717        1.41865344768147       -2.34546523444187
C            3.96196661542533        1.44406525602817       -1.50108336310414
C            2.13542013311673        0.67312208792267       -3.43314198465575
H            0.68769545417747        1.71079187716591       -2.24493342747146
C            4.37476589586770        0.69288304232872       -2.58968516153851
H            4.69384939767651        1.74628765367057       -0.76935221442344
C            3.46495528888725        0.30231746603685       -3.55514617240973
H            1.42078758546447        0.38518686651763       -4.19054072147983
H            5.41422631537656        0.41274744492921       -2.67912087085195
H            3.79055037038018       -0.28054862328173       -4.40428807654171
C            3.11387367053035        3.09465290544968        0.81465616352235
C            2.45428109503460        3.85276247664506        1.85887221223435
H            3.80797012663978        3.74143705724554        0.27189863278502
H            3.66152564433258        2.27126761758540        1.27848058036657
C            1.87189866885661        4.45090353227099        2.71489019415089
H            1.36527691117941        4.97912834641873        3.46535443702989
Cl          -0.65860589831593        1.87733993351962        3.00710218697904
Cl          -0.81434763879424        3.61627697138251        0.38074096415093
O           -1.43806265862275        1.14246977186715       -0.10122297145437
O           -0.05061981156528       -0.23365720051584        1.44529591537339
C           -1.21187868983998       -1.10701941572167       -0.85821288898999
C            0.17792157965963       -1.24481026995229       -0.61601360225652
C            1.99592949633800       -1.12549106793103        0.91633079064656
C           -3.33973077859160       -0.17625252900496       -0.23675873964059
C           -4.02376086624119       -1.21733990830422       -0.81169112216717
C           -1.91061154889949       -2.06267389107365       -1.62813380957614
C           -3.26736875065777       -2.12953940957091       -1.61022678714363
C            1.05649419145483       -1.83750228585423       -1.55096513915162
C            2.37778545900596       -1.99345006452628       -1.27324481637032
C            2.89611905387218       -1.63975957834432       -0.00271940256741
H           -1.33868692576060       -2.79854321593339       -2.16930406157883
H           -3.79711023027906       -2.89531269279389       -2.15197393071894
H            0.67111086990863       -2.09604370501333       -2.52307037057014
H            3.05543269244916       -2.37218858285237       -2.02028420883953
C            4.33521422730447       -1.79012622832328        0.23124747901003
C            2.33049282245577       -0.91915322093022        2.38076513884652
N           -1.97920418416965       -0.09485050386243       -0.29762017284956
N            0.71152902114702       -0.87241938677941        0.59011233222912
C           -4.00484208515337        1.03408863582640        0.38906978898223
C           -5.45887645039468       -1.49123021144894       -0.64251406697508
F           -3.78822962424617        2.13977842484874       -0.33092023233284
F           -3.58034578985058        1.25833428498434        1.63533450805139
F           -5.33755198726793        0.92621556888528        0.46520963905368
F            2.64315437251056        0.33795024395551        2.69916387235000
F            3.38347793779849       -1.67318540849203        2.75212174971483
F            1.34203291445938       -1.31276227581174        3.18490456309835
C           -5.98670237930482       -1.71999807558869        0.62597585126657
C           -6.28090748372647       -1.61756496997029       -1.75831349451305
C           -8.13771841960416       -2.16022921028323       -0.34076479674411
C           -7.61634733889093       -1.94065857753473       -1.60466655379312
C           -7.31985665570922       -2.05210119406199        0.77197399973307
H           -5.34694170499788       -1.64070253185454        1.49242689585309
H           -7.72142072073992       -2.22680472628309        1.75841013943799
H           -9.17994247629164       -2.41526881287002       -0.22288596943185
H           -8.25079672443232       -2.02218353672320       -2.47446006398315
H           -5.87487302569904       -1.43611329653781       -2.74273833597206
C            4.99236685936697       -2.94368722110835       -0.19461769117970
C            5.08183183474053       -0.76298788860477        0.80595035050133
C            7.09258007734006       -2.04157899418206        0.53215022938054
C            6.44923046718021       -0.88923380359556        0.95273478423008
C            6.35939028293295       -3.06913306003600       -0.03773561670618
H            4.42231063048413       -3.75573263357665       -0.62142992213807
H            6.85436133652197       -3.97310907182650       -0.35989244539451
H            8.16094922915797       -2.13974605086349        0.65086498732793
H            7.01563298374148       -0.08547967186205        1.39835903532418
H            4.58676899974561        0.13918864930734        1.12831087156022
