71
 energy: -141.801143429876 gnorm: 0.000388897680 xtb: 6.5.1 (b24c23e)
Si          -0.35775264492436        0.72249673944317        1.47140621415188
O           -0.46608904969491        2.15193502771731        0.75832387271077
C           -0.79482783092800        2.63892807948099       -0.52436780477762
C           -1.77032617312989        3.78091632303326       -0.39364800015978
H           -1.24232753467304        1.83964389546808       -1.11693535391900
C           -1.76663525362864        4.59516869821463        0.72977923628327
C           -2.67586267929473        4.02980337921484       -1.41719162671200
C           -2.66342869617867        5.64466455944459        0.82909933317454
H           -1.07100395199331        4.38815630189449        1.52822444705195
C           -3.56641856110037        5.08335025372006       -1.31847830683001
H           -2.68432106763574        3.39021324169158       -2.28862107184834
C           -3.56216894605139        5.89235903990238       -0.19425959254800
H           -2.66059756158698        6.27021623900376        1.70948011857780
H           -4.26999564095644        5.26915937640791       -2.11693464934948
H           -4.26229469036503        6.71114395518185       -0.11524860358591
C            0.50035339533380        3.10368240420005       -1.22313455575812
C            1.22938076911118        1.98134892935363       -1.76899173126016
H            0.24158236980520        3.79109990074886       -2.03252855420283
H            1.11704432942744        3.62724311559470       -0.48950868355813
C            1.80094823046193        1.03386415392827       -2.22631615917454
H            2.30223766398524        0.21360062234327       -2.64752241295681
Cl          -1.93228001758906       -0.42660690753375        2.15703054760216
Cl           0.17211099458080        1.51479560824913        3.29870468768421
O           -0.67093837973298       -0.10946283242647       -0.35891934360309
O            1.05637114649488       -0.22790502030469        1.47750874793543
C           -0.02852731413656       -2.32257706485090       -0.22081632830099
C            1.33897971415644       -1.94437008736320       -0.15539287980971
C            3.05055607521368       -0.31621566020771        0.30452123729402
C           -2.30680672439471       -1.69787227901824       -0.52316034198246
C           -2.75562621671405       -2.99807537071144       -0.37060655397739
C           -0.44595244575566       -3.67229188498149       -0.19657457580603
C           -1.76689730983745       -4.00069832156398       -0.21990992797908
C            2.32929110142010       -2.73496419934264       -0.77440424367304
C            3.59982461180051       -2.28216050788397       -0.94114207825751
C            3.97578197650153       -0.99275960663545       -0.45103849552789
H            0.30335491428437       -4.43549584728828       -0.06461676960138
H           -2.08336295092762       -5.02489703096724       -0.10770386017077
H            2.03129336846200       -3.68225681387414       -1.19393000961460
H            4.33518243099741       -2.86213942312173       -1.47367274032928
C            5.29939533050493       -0.48058885177783       -0.83400902161182
C            3.39191307934273        0.88290148485446        1.16733703578781
N           -1.00359249354623       -1.37582015143831       -0.37906924609120
N            1.77805043781802       -0.78223378309585        0.46355082104099
C           -3.17318292544505       -0.57729568804068       -1.05888744515637
C           -4.17427444616354       -3.34311216609652       -0.25823494698985
F           -2.55128833900626        0.03524962585437       -2.08436914412389
F           -3.51618898546205        0.37478326094098       -0.19448888014661
F           -4.31637952375528       -1.03603556055112       -1.58948619362836
F            2.63930101163813        1.95507959242685        0.91153387238673
F            4.66143081660521        1.28796070381007        1.02857431701449
F            3.26706038637869        0.58683042146029        2.46620740218914
C           -4.98351581536193       -2.61387474032193        0.61384373664153
C           -4.71055841337006       -4.42921463677563       -0.94506459871941
C           -6.84258383552771       -4.03374815991474        0.08036004903687
C           -6.04102847149500       -4.76560411071744       -0.78019041184573
C           -6.30985873985423       -2.96206695532070        0.77882833218625
H           -4.55762326784730       -1.79430888835211        1.17388407899786
H           -6.92937154327250       -2.39531988884119        1.45687984342610
H           -7.88102435143441       -4.29986223790338        0.20801528733086
H           -6.45427112937554       -5.60081924697315       -1.32576734210242
H           -4.08971146694287       -4.98953639792736       -1.62884687775425
C            6.43742025224854       -1.24591375664893       -0.59461720666154
C            5.41760415689318        0.72510743895228       -1.52270100157275
C            7.78899311675755        0.39989716364965       -1.69662829410530
C            6.65792113673784        1.15827458577493       -1.95059124242246
C            7.67646197847926       -0.80049733940451       -1.01546599291758
H            6.34985703238572       -2.17661008028263       -0.05328045785795
H            8.55585830862730       -1.39286826244594       -0.81172936992440
H            8.75678877322508        0.74402071140355       -2.02857884051395
H            6.74114060948040        2.09235052803527       -2.48496147552783
H            4.53469886992953        1.31503939952096       -1.72290697355953
