71
 energy: -141.799809286169 gnorm: 0.000809371840 xtb: 6.5.1 (b24c23e)
Si          -0.09384451149098        0.75325413289861        1.83701562779726
O            0.45475975925063        2.11833983210829        1.24197970560430
C            0.43683695069714        2.86072590034472        0.02697655894560
C            1.75709322243776        2.66488904472364       -0.67385867479234
H           -0.36458743365581        2.47396314429464       -0.60398425700596
C            2.93183889355839        3.20191575759389       -0.16249760858296
C            1.81022372606842        1.89064911569562       -1.82550427290223
C            4.13734717119382        2.98301851283114       -0.80487458406074
H            2.91000536084481        3.77676767591351        0.74989296369559
C            3.01650216384420        1.67142805453974       -2.46754607000967
H            0.89946531065751        1.45595794987510       -2.20840769459948
C            4.18202746968311        2.22345107682754       -1.96168411656474
H            5.04593147100003        3.40385388352618       -0.40022697123486
H            3.04740457516021        1.06824085647455       -3.36430798482364
H            5.12358761352889        2.06018102942130       -2.46660213089691
C            0.15163732842764        4.32633364993501        0.38061503569793
C           -1.21791434282965        4.47712625078053        0.82553434424883
H            0.32487745284674        4.94314125129920       -0.50485894223611
H            0.82561669627707        4.64538078460614        1.17840157652210
C           -2.35371800513871        4.55234811527973        1.19228975853877
H           -3.34985228407847        4.62912882054740        1.50940191263044
Cl           0.55588415448463        0.87856900364461        3.73691494571083
Cl          -2.08341223384715        0.45523831206033        2.00637945157495
O           -0.68213416347951        0.34426118702817       -0.61324441141333
O            0.59723733320717       -0.72400206504962        1.46724677033773
C           -1.07445349905753       -1.90043672613939       -0.55286441599410
C            0.33176243217392       -2.12873999365331       -0.43034762826933
C            2.51549292372555       -1.40762888825434        0.29491612530037
C           -2.83131846458137       -0.35378783930740       -0.89752770492866
C           -3.79817516394106       -1.35323063278536       -0.84681172642474
C           -2.00982431659492       -2.94373793517334       -0.62733352251257
C           -3.34783210203917       -2.67938471580831       -0.73095186955620
C            0.95064991958922       -3.16797861198443       -1.12826167651425
C            2.31162546790052       -3.25948174282441       -1.21448203187389
C            3.13093737972784       -2.31524062495810       -0.52683085924640
H           -1.65587244132093       -3.95643619283188       -0.52336206267649
H           -4.07224777358678       -3.47670521749948       -0.70146159673616
H            0.32366974604170       -3.85420848543201       -1.67518322394315
H            2.78683016425647       -4.01556357939829       -1.81545569798728
C            4.57776181771228       -2.36118012800128       -0.78922136401607
C            3.24887459095415       -0.61564071127959        1.35052001312682
N           -1.52391154967695       -0.61302655970526       -0.68034684650076
N            1.14347395574982       -1.28524259083042        0.33071857234836
C           -3.14308585872227        1.06054799224042       -1.33333551846302
C           -5.23550523946926       -1.06529046822470       -0.82393209627027
F           -4.29609491226918        1.12332337996732       -2.02218801416843
F           -2.21955807413479        1.53119132238250       -2.18568210654873
F           -3.24902822013588        1.95178852635985       -0.34560994886763
F            2.99836516664401        0.69607795000784        1.31578635350689
F            4.58018019022155       -0.73313687985495        1.28777224348159
F            2.92335121167219       -1.05208432893206        2.57922255963516
C           -5.73289396810426       -0.12250337567018        0.07521536207608
C           -6.12014835187351       -1.77241993306162       -1.63383973106098
C           -7.96642540270115       -0.58097019633602       -0.67312035482401
C           -7.47789452749270       -1.52402331755448       -1.56206186962245
C           -7.09206994718737        0.11417034848112        0.14654942453792
H           -5.05134687278930        0.40190796122487        0.72857988634659
H           -7.47056131376829        0.84340203075928        0.84657208292849
H           -9.02755562169389       -0.38974114108226       -0.61773171630524
H           -8.15692483898682       -2.06746570224282       -2.20218230315201
H           -5.73689225268476       -2.49668261538953       -2.33778579220824
C            5.28655449078375       -3.54640545005062       -0.61921173478973
C            5.22807950090880       -1.24177460941706       -1.30296866327151
C            7.27516431906788       -2.48561756996016       -1.43998544360576
C            6.56991325509850       -1.30772406761776       -1.62497734642775
C            6.63155994433146       -3.60287900964021       -0.93494231221001
H            4.78574229036892       -4.41447541243614       -0.21623088470331
H            7.17787805635627       -4.52247301814871       -0.78766589767656
H            8.32467010316242       -2.53267545396322       -1.68848780149593
H            7.06770953187310       -0.43563229216505       -2.02096030552043
H            4.67430957584076       -0.32583377101125       -1.44813048710597
