71
 energy: -141.797681133088 gnorm: 0.000439593868 xtb: 6.5.1 (b24c23e)
Si          -0.22902554322393        0.95082765047013        1.09087800461833
O            0.54171225345029        1.87583893309567        0.02605088293331
C            1.28067305207698        3.06809609669194        0.14685172048074
C            2.58896146563937        2.89971775479040       -0.58343260194114
H            1.46470245833233        3.27734070163029        1.20763690647989
C            2.64847338960532        2.10854499084005       -1.72320349974103
C            3.74096217400732        3.52459189383973       -0.12697538938178
C            3.84804282812803        1.93509297759590       -2.39089947005934
H            1.74949993463875        1.61924850923279       -2.06740355857736
C            4.93828925180832        3.35636435334392       -0.79975660511535
H            3.69947666092264        4.13436863072257        0.76345232381953
C            4.99538661195664        2.55901399260604       -1.93030095685711
H            3.88792317305955        1.31336293413099       -3.27472239501059
H            5.83186627964830        3.84206772919645       -0.43612413069176
H            5.93251067729438        2.42378313605562       -2.45093579157697
C            0.45704857212678        4.21658852050805       -0.46738555886166
C           -0.80649459472097        4.35182524590714        0.22514159449983
H            1.02992967145158        5.14446895399663       -0.39895109061781
H            0.26795467995785        3.98650150027369       -1.51922286332642
C           -1.84791806375653        4.39867439027052        0.81189438012736
H           -2.76591019016319        4.45185447503262        1.31572307412014
Cl           0.52814764442812        1.72638933072244        2.89519134471024
Cl          -2.18624651396309        0.92461917788519        1.77850789955181
O           -0.82688010321307        0.14959976146190       -0.53160029394232
O            0.47431124197656       -0.57586171165283        1.47902788892716
C           -1.30252595672649       -2.08128786373044       -0.18252618063234
C            0.08704575064355       -2.34644007694506       -0.04858270872189
C            2.30358282376563       -1.60737517953549        0.49643695826452
C           -3.02822046658401       -0.51730205795659       -0.69787204085971
C           -4.02024731828237       -1.46311931176171       -0.50237707144450
C           -2.28349011155518       -3.09334367475465       -0.11398470997782
C           -3.60621592428366       -2.78899760499415       -0.21409982317283
C            0.66554665282740       -3.49750858621892       -0.62644909985422
C            2.01123959480804       -3.61047990655633       -0.77662670389324
C            2.88010960799047       -2.59279104030328       -0.27371623249706
H           -1.96372999020762       -4.09826047490410        0.10929588545186
H           -4.36091035128317       -3.54481504225740       -0.06989784212492
H            0.00332300008748       -4.23975977244177       -1.04230503192832
H            2.44611981958093       -4.44425497881717       -1.30185770769719
C            4.29571757180516       -2.60659203275162       -0.64983177401225
C            3.10137929102202       -0.71816623286716        1.43111649845753
N           -1.72925947918896       -0.81140193781463       -0.47467778506053
N            0.95505890052816       -1.47697220836392        0.58937072411398
C           -3.31667493361682        0.80609061243839       -1.38749279296935
C           -5.44775603886591       -1.13431460384251       -0.52167855457224
F           -4.40831796950022        0.68468823430227       -2.17204606232750
F           -2.33902890580790        1.15237689732150       -2.23044637191256
F           -3.54928499870788        1.85172111838301       -0.60014446459336
F            3.08203297039249        0.57199851738613        1.09244491437719
F            4.39472881262907       -1.06810767281510        1.49651566586928
F            2.66174576745794       -0.82562726354329        2.68863942333818
C           -5.91147078544774       -0.03954218766150        0.20795979451028
C           -6.35830450214506       -1.93823730541953       -1.20393182095641
C           -8.16166118194644       -0.54444272398880       -0.45763613109985
C           -7.70691161304558       -1.63802112087876       -1.17609805153188
C           -7.26244076734477        0.24880246526691        0.23643015896343
H           -5.21175572325229        0.56098834032447        0.76949448241741
H           -7.61449439642494        1.09602892494769        0.80478070248268
H           -9.21585965068613       -0.31260866609551       -0.43711679233872
H           -8.40542208078277       -2.25814811404165       -1.71790516329549
H           -6.00199348032857       -2.77982449650109       -1.77971670305996
C            5.04681637255973       -3.77794285515679       -0.58638427804449
C            4.88289346008855       -1.44581814558675       -1.15620131197297
C            6.94361958243003       -2.62527077813971       -1.49705540825042
C            6.19855299732224       -1.45964233889809       -1.57483645195829
C            6.36515490283773       -3.78209821099871       -1.00143042148362
H            4.60434962366428       -4.67564003958290       -0.18048618508006
H            6.94424517216355       -4.69098248522050       -0.93510649742801
H            7.97346101701797       -2.63213772691494       -1.82052729345272
H            6.64227568003427       -0.55527327095600       -1.96194197771409
H            4.30284424288880       -0.53663804980156       -1.22741257689576
