71
 energy: -141.784625440162 gnorm: 0.000264003821 xtb: 6.5.1 (b24c23e)
Si           0.20700630665701        1.20064901300114        0.36121838957201
O           -0.77936391964606        2.34937442801825       -0.24618523803714
C           -2.12649343830750        2.67993051013944       -0.02826774141703
C           -2.33756426459322        4.13233039003698       -0.38552311081548
H           -2.73013102812752        2.05032311442296       -0.69186850440573
C           -1.38861927216768        5.07984677424565       -0.02713891564186
C           -3.49638247810333        4.53770762448098       -1.03281737922014
C           -1.59437138740917        6.41606489343291       -0.31998217418466
H           -0.48660908253802        4.75780600998139        0.47065737784290
C           -3.70433388720423        5.87562534983405       -1.31834956948441
H           -4.23658022990737        3.80213771480915       -1.31492122319497
C           -2.75332947765855        6.81699058362485       -0.96297803465776
H           -0.84931094137834        7.14714379116699       -0.04264695873436
H           -4.60907343415211        6.18347258097356       -1.82229996679783
H           -2.91512160881382        7.86089804403570       -1.18882640741221
C           -2.60576945647807        2.48261208950332        1.42697938857502
C           -2.51620036711452        1.12106130787393        1.90318806098071
H           -3.64779170778069        2.81012066679182        1.47561963795102
H           -2.00057338017504        3.11661339961633        2.07967016274281
C           -2.43752457927848       -0.00159474581539        2.31420103831274
H           -2.35832123077582       -0.97365767822211        2.70233196245443
Cl           1.66433065776267        1.50953115201551       -1.05019856828782
Cl           0.45807771950863        2.00631291287027        2.24483445675475
O            1.21028815035248       -0.20163336975454        1.17647068684038
O           -0.77750746649737       -0.04430225353595       -0.37051913673655
C            1.40268058331848       -2.02660972252675       -0.22177004147820
C            0.00786280990171       -2.30993085630820       -0.09928119676241
C           -2.31288205582518       -1.76378883446650       -0.29587911420029
C            3.30484013160283       -0.73237733599834        0.38812109232823
C            4.13820990219629       -1.45333463982825       -0.44900162189074
C            2.25723876289306       -2.87953254326344       -0.95055099446586
C            3.57575382831123       -2.57687613435623       -1.10712646496678
C           -0.38412257124401       -3.64471059056282        0.11365575055212
C           -1.68749090764330       -3.99975844442526        0.28686372574169
C           -2.70920834565952       -3.03632156111485        0.04178586689476
H            1.82135606081612       -3.72324565449846       -1.46096402688901
H            4.20831563954858       -3.17182141401378       -1.74541165156209
H            0.39788543713944       -4.37814992724197        0.23000237856329
H           -1.96653250759651       -5.00070362598665        0.56810328857864
C           -4.11461716577489       -3.43874086105819        0.15998465517374
C           -3.27394364006246       -0.83750271172762       -1.01344041349240
N            1.98072664918119       -0.98618126291221        0.44504240604832
N           -1.00116706870448       -1.36564013332612       -0.20340398505089
C            3.83257791507788        0.22785520581836        1.43922215601654
C            5.52387181360879       -1.06689047281197       -0.72261737127270
F            5.14413277553174        0.02644115699066        1.66365245081556
F            3.25365971155908        0.00179685039906        2.62441593135558
F            3.69671818076080        1.52055323944401        1.16164129812475
F           -3.97968720669420       -0.00121250674965       -0.24548601468743
F           -4.18975050508107       -1.56008228311098       -1.69054299565048
F           -2.67415458691976       -0.10085625353827       -1.94978556032269
C            5.81247537025167        0.25600725320604       -1.05942586699814
C            6.54688749343554       -2.01218028617755       -0.71565530391082
C            8.12523561705050       -0.31949841063430       -1.34356113790396
C            7.84189478235406       -1.63550518067902       -1.01725414218418
C            7.10832838464830        0.62155262091991       -1.36841298444628
H            5.01329288771735        0.98163551765438       -1.09689552248467
H            7.32505895635303        1.64594738451487       -1.62973690601679
H            9.13776796706090       -0.02825317538967       -1.57906832328577
H            8.63275761618020       -2.37042028128336       -0.99525945871164
H            6.32920191109561       -3.03425830463645       -0.44209904011987
C           -4.55447679928347       -4.63557368206033       -0.40244965958015
C           -5.00947083296688       -2.66120453546875        0.89439941868602
C           -6.75335785552075       -4.25612130844889        0.47655949536447
C           -6.31971036590017       -3.07223276503592        1.04976411879246
C           -5.86807586222461       -5.03546419386436       -0.25006211426030
H           -3.87005074486846       -5.23378023904091       -0.98538606811213
H           -6.20286618607314       -5.95758472760660       -0.70089371195233
H           -7.77881720257434       -4.57126570619571        0.59597298235383
H           -7.00377530674549       -2.46409505147075        1.62174253336449
H           -4.67421066641215       -1.74485891466884        1.35696391091026
