71
 energy: -141.794581318235 gnorm: 0.000711194801 xtb: 6.5.1 (b24c23e)
Si          -0.09674471504941        1.09881189983843        1.26222539298219
O            1.47254539384216        1.17564243435496        0.83364382052670
C            2.35988383652875        2.25728817735383        0.58150753614603
C            1.94888768331469        2.93842921746677       -0.70433770052505
H            3.32776928183410        1.75904600496128        0.41627905610702
C            1.80170900465102        2.13091286885506       -1.82795967707782
C            1.68002918327923        4.29426747966106       -0.81288662254865
C            1.38099612046056        2.66113679264696       -3.03220411592077
H            2.01443592079464        1.07223228312003       -1.74870867436341
C            1.26600430325112        4.82676856690756       -2.02237241421680
H            1.77445157663880        4.94282627463953        0.04217971812348
C            1.11099718472264        4.01547342790571       -3.13179826743543
H            1.26481661627972        2.01772139855063       -3.89311278476464
H            1.05300537297009        5.88312977630868       -2.09252994495079
H            0.77902655500623        4.43423518319279       -4.07037225360976
C            2.50891329105005        3.17664317840813        1.79799864995485
C            2.83551166553316        2.39913596598222        2.97540838615424
H            3.30739175565176        3.89525950352378        1.59681066583524
H            1.57173161243116        3.70570932959930        1.97799314573212
C            3.07729851171410        1.72156809448663        3.93088524107002
H            3.28592639284270        1.14111202637245        4.77860799272018
Cl          -0.65301276428273        0.70101705788508        3.16392701414580
Cl          -0.66705977491973        3.11552386370258        1.14517847994448
O           -1.17837726407047        0.86590904612109       -0.07251696753983
O            0.16756919093583       -0.82553623304335        1.14605926054887
C           -1.19538188074000       -1.26352056375578       -1.13059537975097
C            0.21015402826671       -1.44660549955828       -1.06826468868355
C            2.20953835769368       -1.43737561020093        0.22362909579846
C           -3.20589894934037       -0.22790084994960       -0.33029268369707
C           -3.99556464520220       -1.22047457293979       -0.86280931890893
C           -2.00681526923682       -2.15852484274009       -1.86254405512675
C           -3.35711171333650       -2.16725484494902       -1.72111830430894
C            0.95098430468389       -1.93025699991112       -2.16761463353380
C            2.29744915526218       -2.10475166473966       -2.07970956569961
C            2.96740242711384       -1.84529656563728       -0.85923806206939
H           -1.51810479625595       -2.90467295978618       -2.46788048756236
H           -3.96683652900548       -2.90320598509413       -2.21803860871179
H            0.43449756126434       -2.09402337203394       -3.09926479966733
H            2.87757112847979       -2.42720217739105       -2.92916466126866
C            4.42934039496394       -2.04228816022623       -0.80923703744896
C            2.88590682911711       -1.34541380946032        1.57861900549637
N           -1.85058429972536       -0.24969826059185       -0.45206149529369
N            0.87993643076655       -1.23369188155478        0.11548952239271
C           -3.77195859229454        1.03640204041752        0.28929585949582
C           -5.41912709999624       -1.40169318499609       -0.55813322114022
F           -3.33945571427506        2.12561061529248       -0.35311843739500
F           -3.47546128859385        1.16330267235967        1.58334755265900
F           -5.10835938289921        1.10324840938996        0.20134923253346
F            3.77421604671853       -0.34743342010470        1.64479769201844
F            3.60183480503839       -2.47925228241748        1.78202941995972
F            2.09724315053886       -1.24048124498194        2.63273717932237
C           -5.84071023665539       -1.46221646680143        0.76998125469756
C           -6.34601087062558       -1.60206706057931       -1.57776284919905
C           -8.08793025012421       -1.88631750794848        0.04675291356289
C           -7.67441607377282       -1.83404291278954       -1.27397234016912
C           -7.16792710273231       -1.70294075753611        1.06634922280577
H           -5.12172076434318       -1.32765780600993        1.56493334110230
H           -7.48474443937508       -1.74708404744921        2.09712205526409
H           -9.12557045251967       -2.06895463227340        0.28146937024781
H           -8.38940769440770       -1.97321577445756       -2.07103274087835
H           -6.02738191584850       -1.54451708841654       -2.60825652774243
C            4.95020180450276       -3.32164648719245       -0.98046022948504
C            5.29531320670239       -0.96410271081632       -0.66491375670305
C            7.17640865626662       -2.44733039129937       -0.81004688356464
C            6.66300725761966       -1.17015373532588       -0.66371523769686
C            6.31764482819928       -3.52195904742878       -0.97106867032536
H            4.27674361557301       -4.15792572345699       -1.09686495858213
H            6.71315032898405       -4.51948988605397       -1.08941492166422
H            8.24423056478631       -2.60528572308893       -0.80182192557909
H            7.32773301686924       -0.32781635409804       -0.54756946973730
H            4.89898612649582        0.03487550977065       -0.56444470280457
