71
 energy: -141.719567644875 gnorm: 0.000779038030 xtb: 6.5.1 (b24c23e)
Si           0.54101796341456        1.47171727684101        0.96058532619891
O           -0.07829564853064        3.10662039390541        0.56501763681602
C           -0.53773009411950        3.55943266893819       -0.53791946897535
C           -1.47786708573954        4.61581970729961       -0.59571157735314
H           -0.15746931931794        3.14637962899915       -1.47169114064223
C           -2.00004597497833        5.18581306122615        0.58288766088694
C           -1.91246518768954        5.11318397910097       -1.84030107225920
C           -2.91534935363986        6.21045181643203        0.51099253110199
H           -1.66256493598162        4.79849982603386        1.53169557030899
C           -2.82816844406052        6.13878062447707       -1.89562976393087
H           -1.51727947918277        4.67742101596506       -2.74559750969573
C           -3.33315411095757        6.69257054217553       -0.72428641384095
H           -3.31084062653665        6.64430289818499        1.41721225430637
H           -3.15723953886689        6.51698862104389       -2.85215344832429
H           -4.05003904383723        7.49792976531874       -0.77519041104335
C           -2.70949955777735        1.48773264735313       -1.17845463726477
C           -2.01783390460219        1.10691034484365       -0.15036336588013
H           -2.69891173265992        0.93154570391156       -2.10205755774817
H           -3.36696243534301        2.34062411355698       -1.13418615536789
C           -1.23319143309208        0.78401646402952        0.82411518889808
H           -1.55556317371726        0.11513874555320        1.60588393011799
Cl           1.75086457379682        1.44126405684064       -0.73176373883790
Cl           1.10338457720433        2.13501480431891        2.77951206433927
O            1.18341721868565       -0.25711318275392        1.46717153512776
O           -0.84822539371913       -1.89546524351350       -2.18101389169240
C            1.10814668179659       -1.81095404409800       -0.28349046095089
C           -0.27648420580206       -2.08112844418547        0.02716307181376
C           -2.49950281261620       -2.38211407150111       -0.70901248145067
C            3.18038980838199       -0.93778104602551        0.50656072645400
C            3.85338762937468       -1.38948268826269       -0.60707050319145
C            1.76399307214989       -2.28787868610251       -1.41281360326884
C            3.10644077254503       -2.05774605100290       -1.60015998257202
C           -0.69931434426809       -2.31353696958442        1.33670123849670
C           -2.02650850203953       -2.51673876551978        1.62673401224746
C           -2.97027742465839       -2.51280159717245        0.59280241453336
H            1.19002016140053       -2.82540816629848       -2.15022933660602
H            3.60516465278313       -2.39036143565484       -2.49494447628144
H            0.03695538092981       -2.30450811895743        2.12428436203635
H           -2.35695050199048       -2.65296193493227        2.64338505173265
C           -4.40016381441768       -2.55988466964871        0.93201250195135
C           -3.36663307724875       -2.55936136061356       -1.93518100111301
N            1.82467954027800       -1.06158147190929        0.61920710070790
N           -1.19401070307500       -2.12146267189940       -0.99638305595725
C            3.87042283276978       -0.33830991823743        1.70903223817022
C            5.29060879375095       -1.16078737915496       -0.82541381183171
F            5.13151866990061       -0.78872866019461        1.83347059270031
F            3.26804479994428       -0.67987808181981        2.85299621337961
F            3.95197828220192        0.99677557220359        1.68278878821482
F           -3.64757957798277       -1.40331010812214       -2.55597688862391
F           -4.54993946936644       -3.13016811567610       -1.65923401008626
F           -2.80105632644993       -3.36830880627953       -2.83820311729540
C            5.80777954786543        0.13147115424335       -0.79301374634375
C            6.12961953328911       -2.22830690096786       -1.13002683806993
C            7.98527534401055       -0.72246693643501       -1.32822729971298
C            7.47287584432954       -2.00841079949765       -1.37116817923037
C            7.15000954055345        0.34525397709724       -1.04497757996734
H            5.15327315931718        0.96515580224209       -0.58830032617145
H            7.54452529855330        1.34961367904955       -1.01839709946012
H            9.03452613029673       -0.55267483457993       -1.51746568944769
H            8.12111540889551       -2.84274618506355       -1.59362847571225
H            5.72855247062717       -3.23096853352526       -1.15322753258369
C           -4.90857824692364       -3.57748762968441        1.73241234078571
C           -5.24024097794236       -1.52925302284579        0.51600099066644
C           -7.07786803186848       -2.55692985122804        1.66511522087132
C           -6.57202635507989       -1.53136486297443        0.88334576599341
C           -6.24451237095763       -3.57848411506776        2.08850089354016
H           -4.25858559851865       -4.37851553362324        2.05252116958816
H           -6.63587020269601       -4.37894555665725        2.69827329336217
H           -8.12052078929672       -2.55908636827787        1.94489914681927
H           -7.21737455541117       -0.72981597483271        0.55732588092615
H           -4.83989332608734       -0.72457409670260       -0.08386806425666
