71
 energy: -141.795308277634 gnorm: 0.000806109972 xtb: 6.5.1 (b24c23e)
Si           0.03893561722336        1.21802801416692        0.41653558885575
O           -0.90452620494507        2.37372615480938       -0.18950951153317
C           -0.76133513980642        3.76409729576451       -0.36488325369317
C           -2.07254034993726        4.32380229211142       -0.85884218550173
H            0.02865716028076        3.93636871800664       -1.11021163693328
C           -3.26758491457917        3.86694559450420       -0.32022494897719
C           -2.09520701628320        5.32877305140574       -1.81603208731043
C           -4.47099313785992        4.40383948477104       -0.74021422989357
H           -3.24560530953746        3.08002883851237        0.41658661384832
C           -3.29958960760170        5.87089644011687       -2.22907231281172
H           -1.16679718210287        5.68713328732004       -2.23811571290140
C           -4.48939684959762        5.40897362136541       -1.69241605023884
H           -5.39686998816001        4.03850567486789       -0.32129342182280
H           -3.30900405313873        6.65314727581897       -2.97399805182805
H           -5.42897897250255        5.83078347467533       -2.01791424872160
C           -0.37128866080234        4.47839485754698        0.94547633866903
C            1.01576024276595        4.25315253272295        1.28860359379699
H           -0.54597447643599        5.55034630458464        0.81946354040184
H           -1.01280290670930        4.10657185743785        1.74767616005055
C            2.16925853201213        4.04747301762641        1.53123051138703
H            3.17156811793867        3.85175041754158        1.76904956407670
Cl           0.00938417131321        1.33589223979083        2.40569937094805
Cl           1.83059387554313        1.42176438002648       -0.51878282221802
O           -0.74817678799088        0.01725776917309       -0.42035536501173
O            1.07619823150330       -0.95931604658000        1.24641094192049
C           -0.13758689275231       -2.25428959977382       -0.75958033825356
C            1.27558641747746       -2.03367419554130       -0.75097543961722
C            3.17174814928209       -1.21828152559223        0.41036691657868
C           -2.34981632010826       -1.63908999319502       -0.02155252700264
C           -2.85500497319515       -2.85632124550952       -0.38953947104770
C           -0.67890774291546       -3.43729882081575       -1.26362970550366
C           -1.99853599301241       -3.75492247648818       -1.08797956479155
C            2.12740249450045       -2.49241267182268       -1.76629688525035
C            3.47120278174938       -2.23576275411189       -1.72595435054676
C            4.02815190791674       -1.55612523276996       -0.63077342839094
H           -0.01232941528811       -4.14060799690436       -1.73674824344520
H           -2.40204860646610       -4.69180526763180       -1.43201612931330
H            1.69155838106014       -2.98849096845510       -2.61797977280522
H            4.11217879507789       -2.52194832815134       -2.54384176513608
C            5.43889912376862       -1.15284751581565       -0.66933822819822
C            3.64678336692917       -0.72386450773557        1.75931702104172
N           -1.01735986845581       -1.31948787772413       -0.20328563291723
N            1.83495501830404       -1.39605730351428        0.32433644495544
C           -3.20100147689817       -0.49615279487229        0.47357546267514
C           -4.21916257005166       -3.33099270670457       -0.09012106022332
F           -4.45337184174272       -0.84975239327446        0.79002781138239
F           -3.33973693412122        0.45708289354310       -0.46335959654734
F           -2.70867448731039        0.09481581803588        1.56828763861815
F            4.96093553021555       -0.94362609690326        1.94379049935690
F            3.05221405235930       -1.38054625107802        2.76218144139965
F            3.45767732359266        0.58240983967990        1.96985060273499
C           -4.61331653149522       -3.55807259496604        1.22502363646253
C           -5.08891683627612       -3.64210165793896       -1.12952187282704
C           -6.73916840439334       -4.36077060233249        0.45559769481403
C           -6.34721216309661       -4.14603742325274       -0.85480510598648
C           -5.86894409599931       -4.06944505561968        1.49310692940726
H           -3.93183727819651       -3.33223148039651        2.03177833894245
H           -6.16880942284402       -4.24030921500931        2.51592459388635
H           -7.72126702292441       -4.75545198695762        0.66816910080400
H           -7.02215683339484       -4.37283413916248       -1.66671682723963
H           -4.78189064378376       -3.46874944789173       -2.15064309002992
C            6.43901144891927       -2.07358745456169       -0.96647015210053
C            5.77327046615280        0.18726624945468       -0.48050108005056
C            8.08611102448278       -0.33421699240817       -0.84921642577293
C            7.09167632986774        0.58970005262345       -0.57142899096061
C            7.75725290039708       -1.66475029687814       -1.04713995645191
H            6.18257792648949       -3.11351604759008       -1.10727382961481
H            8.53022184590091       -2.38696948684743       -1.26419376913841
H            9.11627773656534       -0.01732092525782       -0.91302132343056
H            7.34462560489029        1.62889336740037       -0.42520842854777
H            4.99149033822952        0.90583356262639       -0.28285252647774
