71
 energy: -141.793610691317 gnorm: 0.000641551224 xtb: 6.5.1 (b24c23e)
Si          -0.02635024624271        0.84836270291744        0.11344743756584
O           -0.51556512208263        2.37814161213120        0.04754843538232
C           -1.41985180781768        3.15184607200510        0.80313588139659
C           -2.25162207029918        3.99155894973099       -0.12961581714870
H           -2.07034675184438        2.49136468523878        1.38644221709526
C           -1.68269648264073        4.54577315785518       -1.26820987139912
C           -3.58946348655038        4.23203870955420        0.15211691892080
C           -2.44479797179245        5.32915565909492       -2.11623827501190
H           -0.64635944816860        4.34255468549441       -1.49135792731491
C           -4.34795076491501        5.02234944367377       -0.69297597892667
H           -4.03651680494739        3.79272607530216        1.03230396366830
C           -3.77724314519321        5.57188606774545       -1.82859269504530
H           -1.99739186327339        5.75124898633751       -3.00422751881020
H           -5.38897616530871        5.20387462573872       -0.46820821352214
H           -4.37201378931537        6.18399073400373       -2.49076363546439
C           -0.60634845831221        4.04385160468559        1.76231042092402
C            0.18351728790053        3.22236599311992        2.65426084292269
H           -1.29367541438175        4.67361867918433        2.33239620932640
H            0.05739224114392        4.68002453153276        1.17080893133691
C            0.82684063875914        2.48069906787302        3.33840964152917
H            1.39328023313273        1.84384898291085        3.94973834704623
Cl          -1.39436761437209        0.20446226933166        1.67982594434819
Cl           1.48964122251331        1.38593535671878       -1.30379244907856
O           -0.62311272936162       -0.27087707410167       -1.05799933269576
O            1.06012364390967       -0.23461924718575        0.95477347735856
C            0.03610678260710       -2.42053790043368       -0.40341709482109
C            1.42534927928021       -2.07257467987035       -0.42932553866817
C            3.22056780224943       -0.60651986843589        0.18410679843453
C           -2.27988783460078       -1.81023427764780       -0.55326664455262
C           -2.69174103873996       -3.04335966178650       -0.09634836675121
C           -0.37466006928525       -3.73882153457885       -0.13391195754113
C           -1.68868345391305       -4.04190127759387        0.06495737811479
C            2.36343956308563       -2.87512987711806       -1.10210128616250
C            3.65900813502027       -2.47452919864359       -1.24283840930280
C            4.11582548381787       -1.28033050228170       -0.61883659385947
H            0.38988233896304       -4.48423512665009        0.01814340293179
H           -1.98966637078285       -5.02861754590242        0.37565767348006
H            2.00645494159425       -3.76552253555510       -1.59497760222387
H            4.35082029939425       -3.03692168797013       -1.84774653288377
C            5.46339988245816       -0.78132650621346       -0.90172587797664
C            3.65478538038902        0.42402079434086        1.20976783680497
N           -0.96332956568432       -1.51319601380977       -0.67090914456198
N            1.92021851303852       -0.98039225779278        0.24329631575012
C           -3.22512232797508       -0.79231237717235       -1.16457334772225
C           -4.07422198998287       -3.32788202662369        0.29354286761116
F           -4.42774691380788       -1.33089642454826       -1.42531541139964
F           -2.77038845126802       -0.39034180256873       -2.36093216561205
F           -3.45605509115465        0.30101237102310       -0.44321472289797
F            4.97149589688175        0.32208526083526        1.46657406408833
F            3.06745081252064        0.19732691972828        2.39419497091076
F            3.43369231795385        1.69649230047242        0.90022265128714
C           -4.74111155493929       -2.42967676199410        1.12789069167074
C           -4.70715190136998       -4.50725084711709       -0.09075187932041
C           -6.65600052829318       -3.87499656299433        1.15670453657514
C           -5.99527634880120       -4.77275202025859        0.33431998462032
C           -6.02507576326103       -2.70723716926739        1.55475842339392
H           -4.23706603069985       -1.53113522035225        1.45257514690537
H           -6.53468487710487       -2.00963524900497        2.20160235643333
H           -7.66151814624329       -4.08620505414355        1.48803834991321
H           -6.48593451157260       -5.68236413697200        0.02170738099046
H           -4.19923646094154       -5.19824602763290       -0.74737540641408
C            6.56860380525273       -1.62780383162032       -0.86397726625378
C            5.62758265417545        0.55013761086097       -1.28513454448294
C            7.98328691376269        0.17981288959081       -1.55877667147501
C            6.88426977233153        1.02213276561067       -1.61208092523688
C            7.82311667249196       -1.14418782916346       -1.18414879517225
H            6.44589610315927       -2.65523805708460       -0.55403720323813
H            8.67843627566079       -1.80181832147942       -1.14030734911770
H            8.96425774528103        0.55383236702326       -1.81062265791002
H            7.00568390949724        2.05196346716312       -1.91104269684030
H            4.76332681899373        1.19484409473746       -1.34803369192319
