71
 energy: -141.796451980594 gnorm: 0.000510426213 xtb: 6.5.1 (b24c23e)
Si           0.24114243851955        1.23633760983651        0.44499701492606
O           -0.47016404231092        2.59008408005497       -0.10698997245974
C           -1.52840761417369        3.36653390525887        0.40324820966963
C           -2.71018440461690        3.32852809681314       -0.52953501890979
H           -1.81635252216288        2.98263807507519        1.38912695094379
C           -2.51250878907475        3.32729581586970       -1.90328601398488
C           -4.00362532697210        3.30977228570197       -0.02617460130133
C           -3.59493845221287        3.29959453305312       -2.76329244082144
H           -1.50376745938781        3.32513908909169       -2.28694294868646
C           -5.08588771155763        3.28645639384128       -0.88779582270124
H           -4.15912929115224        3.30118564741298        1.04341985231283
C           -4.88336479037277        3.28073084888052       -2.25742322038614
H           -3.43318869571038        3.29100611649221       -3.83142137626614
H           -6.08983979254688        3.26438151676431       -0.48900473222576
H           -5.72936814786354        3.25610935435376       -2.92889122375945
C           -1.02462573615270        4.81656104295574        0.55956148313321
C            0.08252175849864        4.86732216348760        1.48963644324721
H           -1.84651784440478        5.44199867370100        0.91644810293510
H           -0.69671795062732        5.18017317880745       -0.41771002626951
C            1.00853037805129        4.84163413012888        2.24664250906156
H            1.81595710791826        4.84242837140771        2.91556665724865
Cl          -0.15444263932122        1.33084747111273        2.43594122165805
Cl           1.89611074044918        1.62881685700736       -0.71493767146863
O           -0.71338224815377        0.16304428996624       -0.49557250625173
O            1.18534476769665       -0.44563968410766        1.07407734442088
C            0.00177903942083       -2.10854083190081       -0.72702407104045
C            1.39799432873601       -1.83860184200682       -0.74844394521957
C            3.29363861657306       -0.82101003317049        0.27071159180340
C           -2.26254979153057       -1.52152921129955       -0.16550107733471
C           -2.68779111599762       -2.82301789298448       -0.26504442255785
C           -0.46786078477225       -3.40462223316690       -1.02238103620000
C           -1.75167427102933       -3.77567716156907       -0.77472797375137
C            2.26881740669634       -2.42924559977734       -1.68955890224311
C            3.59635860850249       -2.12612612219043       -1.70251736914033
C            4.15176732877544       -1.27972628403424       -0.71290462479400
H            0.24927530698163       -4.13176254348087       -1.36743786346878
H           -2.08164107624634       -4.78928638099811       -0.92817284477120
H            1.84384149690667       -3.05597190995310       -2.45647543095879
H            4.24206393615925       -2.50822137169439       -2.47647984074274
C            5.54892667455075       -0.85262647458711       -0.82010475606536
C            3.76815465324426       -0.20627926837609        1.57292571258784
N           -0.95885285182466       -1.16853792986550       -0.37300292440166
N            1.96528837886287       -1.04727089960782        0.21068665863423
C           -3.20668080462386       -0.34468029989726       -0.03013268457088
C           -4.00792290310707       -3.30980214406595        0.15485627935358
F           -4.49172403989175       -0.70200819818991        0.08642154371185
F           -3.16182880111458        0.41146458482357       -1.13593502265923
F           -2.94941879357180        0.43879003992307        1.01983580339661
F            5.07911763081455       -0.42542003740691        1.77361391528875
F            3.16559844736813       -0.79250904339953        2.61687397144995
F            3.58696924582086        1.10669373983751        1.69670631174491
C           -4.46256916912123       -3.06879716709851        1.45032569056109
C           -4.77476671530042       -4.09518737452861       -0.70172231600609
C           -6.43357318372495       -4.36329358892170        1.00983773757780
C           -5.98517313269254       -4.61032091845022       -0.27690914226874
C           -5.66876933230352       -3.59394868738603        1.87150858060300
H           -3.86126181353311       -2.47697148465237        2.12473929758042
H           -6.01230795580653       -3.40298606212244        2.87674361947610
H           -7.37715386241292       -4.76991497522076        1.34083083048859
H           -6.57959100199326       -5.20728661789930       -0.95233152342902
H           -4.43120824881882       -4.27695503441104       -1.70951880151477
C            6.56643932419975       -1.77175260358943       -1.06200896878495
C            5.85167998531334        0.50766657865426       -0.75560062900583
C            8.16784008231602        0.01175164824745       -1.14185738202161
C            7.15639163168150        0.93188455148784       -0.91696804383363
C            7.87040207196044       -1.33908210051935       -1.21399621994507
H            6.33610682737632       -2.82644135973507       -1.10185598765210
H            8.65696669175361       -2.05810844714850       -1.38835502098650
H            9.18701712298674        0.34686874095427       -1.26277744286594
H            7.38447986506480        1.98569604713435       -0.86847695079262
H            5.05493521499233        1.22095734127336       -0.60410153929886
