71
 energy: -141.796997403257 gnorm: 0.000564151171 xtb: 6.5.1 (b24c23e)
Si          -0.11627928437765        0.98942374807353        0.70409348041407
O            0.27291439646551        1.87217628444224       -0.58421881820112
C            0.64648815527173        3.23425712033535       -0.65572359430394
C           -0.51352500298725        4.12804413399506       -0.30122736583289
H            1.47448095387037        3.41202216649115        0.03993762636376
C           -1.79048890850200        3.80960697877080       -0.74198453591694
C           -0.32029089191705        5.26865136072991        0.46504917309430
C           -2.86480839722864        4.61496642557562       -0.41077940984024
H           -1.94047826113918        2.91681142948018       -1.32859497019077
C           -1.39409546070357        6.07916908036421        0.78723585938546
H            0.67045904443021        5.51138313800605        0.81963796141220
C           -2.66774706086594        5.75282302017778        0.35255981438567
H           -3.85582623784549        4.34929271660696       -0.74743725319378
H           -1.23757323974515        6.96246463965765        1.38876616526865
H           -3.50615824467882        6.38190061185500        0.61383247562684
C            1.11174682425021        3.50311778633804       -2.09778992016162
C            2.39532677623559        2.89419415734618       -2.36993573325591
H            1.18424330328605        4.58369293737019       -2.24809964881274
H            0.36169769226838        3.09718315665620       -2.78032497587748
C            3.46594005604335        2.40324469155264       -2.58047463829387
H            4.40961474216512        1.98445853836057       -2.76559489849978
Cl          -2.01808752734040        0.71447656991086        1.50749651901845
Cl           0.50053929246490        2.26707940812177        2.26456390590526
O           -0.52406375155683       -0.28694180554176       -0.63830440543333
O            0.98465493737597       -0.16777212050087        1.33964782189061
C           -0.54138110441331       -2.39573610224941        0.31898836961231
C            0.87155967971852       -2.36276022914070        0.43754411236334
C            2.92011287494576       -1.11236326153819        0.49039171195926
C           -2.53716919831058       -1.39626800653786       -0.51863690846855
C           -3.33099752510412       -2.40968992484263       -0.01321477132958
C           -1.31504084501931       -3.50203109778807        0.73626925383664
C           -2.67066586459553       -3.49033040974397        0.62561537012390
C            1.64476454408173       -3.52950610276792        0.24451172829022
C            2.98634717201995       -3.46003195092635        0.04481866431681
C            3.65596429232517       -2.19806869466664        0.07646392080579
H           -0.81220731636561       -4.31888522759750        1.22761036341046
H           -3.26628251680141       -4.29452269670196        1.02584125957259
H            1.12887868611505       -4.47246471840968        0.16381846515297
H            3.56485172888157       -4.34096602652200       -0.17841002994705
C            5.04664229868589       -2.13412597995026       -0.38763651931435
C            3.53958783227130        0.19062723670596        0.95883416661834
N           -1.20554694989457       -1.36388972126980       -0.29126216162594
N            1.57678208201203       -1.19564335490062        0.67914841956674
C           -3.06253895002561       -0.39583765146271       -1.53146506384152
C           -4.79511032926119       -2.36930639078310       -0.04680052108060
F           -4.14570606244281       -0.89069706581804       -2.16217319502502
F           -2.17760468852562       -0.17728270766516       -2.51098384612518
F           -3.42582315190308        0.79420890673119       -1.06052847553397
F            3.08871109222778        1.26363518160675        0.30983773784203
F            4.87342482767074        0.21448346939845        0.82966231057047
F            3.31852876212826        0.37209902123335        2.26644246405731
C           -5.46031644083273       -1.21649348074788        0.37084514126139
C           -5.53334494727806       -3.48898939774600       -0.42319211704923
C           -7.57104134087481       -2.29900617393872        0.00447891041397
C           -6.91455857825509       -3.44841921838524       -0.40393319169463
C           -6.84150239808089       -1.18777915694413        0.39516972867300
H           -4.88862184565455       -0.36152705863705        0.69966612417599
H           -7.35013402236738       -0.29404501027180        0.72275189920194
H           -8.65014836146250       -2.27077701867302        0.02033000030334
H           -7.48062638142172       -4.31568712018563       -0.70951097448276
H           -5.02117613601005       -4.37895938071185       -0.75848384143014
C            6.00837387686401       -3.00364339623755        0.11847753887593
C            5.39122606132374       -1.25476002137092       -1.41332892696240
C            7.63722084299031       -2.09581724243257       -1.39030675870910
C            6.68013345887718       -1.23871646044611       -1.90899506398763
C            7.29909013050527       -2.97578561282242       -0.37609408500410
H            5.74801919945714       -3.67941856557435        0.91980830401635
H            8.04327675332864       -3.64310369612891        0.03195055008316
H            8.64484694809418       -2.07828618256789       -1.77701394228220
H            6.94094957777430       -0.55759842208631       -2.70484457583811
H            4.63732432736574       -0.59666405265865       -1.82034118031838
