71
 energy: -141.799675720132 gnorm: 0.000659644557 xtb: 6.5.1 (b24c23e)
Si          -0.18487510725557        1.23952412389429        1.55984553944457
O            0.25744545020512        2.39505342568097        0.56553630793883
C            0.08990725840848        2.77322206824002       -0.79586643452761
C            1.32997199029209        2.39679063840148       -1.56450244215806
H           -0.76487545878226        2.23346577756762       -1.20473975721406
C            2.56061670586064        2.95911960616529       -1.24895111243025
C            1.25535956094023        1.44941138397208       -2.57695482143495
C            3.69772924213311        2.58586213665482       -1.94302535810613
H            2.63377792125118        3.67307818847605       -0.44368787268739
C            2.39335908771091        1.07628824509737       -3.27074881267881
H            0.30196291703990        1.00219916912884       -2.81189141791560
C            3.61602862840537        1.64738715469514       -2.95869570666768
H            4.65088121300907        3.02566999054417       -1.68858309367803
H            2.32694716696375        0.33787731130918       -4.05685353165563
H            4.50249237116926        1.36184208909435       -3.50741700419891
C           -0.19572397328533        4.28095063319809       -0.82555871120086
C           -1.48173627325552        4.55198699928900       -0.21780069998801
H           -0.19384753659068        4.62057650426576       -1.86436314630391
H            0.58443364181995        4.80978912277051       -0.27398110772358
C           -2.54502847317539        4.71127891507781        0.30615300565176
H           -3.48175727711276        4.87402994690443        0.74802455709256
Cl           0.49667510582402        1.96017673035799        3.31003317564887
Cl          -2.13657308908653        0.85923594588473        1.90568707032296
O           -0.79897140713015        0.12727403205613       -0.64138098479496
O            0.60554363409837       -0.23548400885733        1.59222671355790
C           -0.96915878755485       -2.04645319930034        0.02406300597425
C            0.45494942860234       -2.10791388346865        0.13822886798726
C            2.57006993597465       -1.03799224158192        0.58212910651170
C           -2.87557286068194       -0.80417251924717       -0.62728379514597
C           -3.74007851718118       -1.83608578884122       -0.27526548923347
C           -1.80059441085992       -3.15168857602812        0.26283040214720
C           -3.15972047042741       -3.04152235740904        0.15692260026333
C            1.16072154144732       -3.22806653620501       -0.30593445216329
C            2.52258579087583       -3.21524717322505       -0.42174497342319
C            3.25768322145615       -2.06220269411989       -0.01446014408155
H           -1.34736059165753       -4.06746335310732        0.60583147925585
H           -3.80290214283349       -3.86415630303644        0.42332554713403
H            0.59399702494977       -4.08235190147872       -0.64097226671065
H            3.05970715861091       -4.05008377999894       -0.83788165922901
C            4.69982106861067       -2.04050776552856       -0.30346403490025
C            3.24093239256925        0.04247637303387        1.39592166030087
N           -1.54457165818642       -0.88323299646541       -0.41253489817609
N            1.19374716877287       -1.03165256377686        0.63247578963130
C           -3.32160059291096        0.41005095352252       -1.41088390603116
C           -5.19751769931232       -1.68064967804235       -0.26118445047166
F           -4.50765173170236        0.21144356869404       -2.00949887861165
F           -2.47789011430084        0.67478832353960       -2.42286473886471
F           -3.44213608036935        1.53719896543890       -0.70602171768533
F            2.89517903433283        1.28405740442344        1.04615633345070
F            4.57734516255107        0.00965251942812        1.33943128870920
F            2.94912011399505       -0.10232930986721        2.69990794303544
C           -5.76523049631449       -0.57895539866809        0.37836424482021
C           -6.02625762976913       -2.65388890032059       -0.81316526204387
C           -7.95884046342418       -1.41632806512869       -0.11692907931260
C           -7.39987455704890       -2.51606354618204       -0.74648709703133
C           -7.13908541325297       -0.45259139087921        0.44777527809510
H           -5.12387495961568        0.15993265950972        0.83590851324040
H           -7.57184653464507        0.40134874533747        0.94628471686346
H           -9.03211594955632       -1.31136454536224       -0.06537451848761
H           -8.03621427826051       -3.26829497569690       -1.18848401633127
H           -5.58959301708323       -3.50322612380657       -1.31806527248465
C            5.52212108566906       -3.07335480730917        0.13519233530981
C            5.23429122165650       -1.02860530032444       -1.09736308689522
C            7.39328618678749       -2.06835768837111       -0.97883724793710
C            6.57484909601258       -1.04621489156639       -1.43085297811069
C            6.86488532244967       -3.07977102859130       -0.19463397973747
H            5.11026503206020       -3.85561808055156        0.75580777608964
H            7.49998506340426       -3.87697897241798        0.16162561209970
H            8.44146982205910       -2.07659588609905       -1.23708030779965
H            6.98311797572265       -0.25801480317297       -2.04514034897009
H            4.59139380891713       -0.23575361761887       -1.45142225534307
