71
 energy: -141.797673508866 gnorm: 0.000429495983 xtb: 6.5.1 (b24c23e)
Si          -0.25432138800767        1.09749321424189        1.03895563041569
O            0.43399856309108        1.92340901572423       -0.15433217044800
C            1.23186819025891        3.08217518595129       -0.19132385111012
C            2.48303561185663        2.78588346133358       -0.97951183785347
H            1.49319627270801        3.37948587818579        0.83169032247618
C            2.46300165811355        1.82612967649330       -1.98277246996856
C            3.66335669147724        3.46464332372892       -0.70948712461716
C            3.61299612349513        1.53911128181214       -2.69716715408435
H            1.54231063996111        1.29906540487800       -2.18347753219144
C            4.81008442893273        3.18272769011800       -1.43026658761866
H            3.68403617313620        4.20660381398504        0.07516935094852
C            4.78879587698310        2.21692289692918       -2.42240600979780
H            3.59110675203493        0.78639451296248       -3.47320812773988
H            5.72600945311135        3.71174856176672       -1.21150571697823
H            5.68693862076624        1.99312615486002       -2.97989202890081
C            0.42005793453872        4.20895438057018       -0.85883852466099
C           -0.76267775374244        4.50166916965505       -0.07788978569444
H            1.04706775416217        5.09955462106420       -0.94561670694089
H            0.12268597913422        3.87878383584570       -1.85755324433738
C           -1.73579794942332        4.68427998857377        0.59339943465779
H           -2.59182334876928        4.86132683040554        1.17238523762455
Cl           0.52670216508968        2.09244230955883        2.71830615841735
Cl          -2.20500772445240        1.14695760079464        1.73597682659343
O           -0.84618145573871        0.06919217046266       -0.45872404254868
O            0.48792444460640       -0.35130874508013        1.60921538660442
C           -1.33124623029160       -2.08486303060310        0.21395359872611
C            0.05656518427574       -2.33587706088001        0.37996357491874
C            2.28594090138560       -1.52468734314262        0.73833858696880
C           -3.04613139751055       -0.60782361472723       -0.53947307849540
C           -4.04523178696239       -1.50839970296188       -0.21313819688586
C           -2.32016951536679       -3.06812359617096        0.43318589341652
C           -3.64022421737920       -2.77598644656800        0.27810469500252
C            0.62188948518174       -3.57102109356021       -0.00835634467963
C            1.96294334789318       -3.71098419066252       -0.17292020895337
C            2.84280720312013       -2.62347007715209        0.12239106056629
H           -2.00916340248637       -4.02873817895811        0.81043090410898
H           -4.40023647839206       -3.49733270358962        0.53062574918662
H           -0.04901118691300       -4.37176245756675       -0.27471827770692
H            2.38522587582245       -4.62344858133044       -0.55923647414366
C            4.24249108851610       -2.69737899639036       -0.30210511825491
C            3.10579856757974       -0.49683939477895        1.49429088327820
N           -1.75063934398603       -0.87111185541404       -0.26578659375717
N            0.94043530867062       -1.37887859203136        0.84964160581967
C           -3.31304136076984        0.60404359811952       -1.41625899870152
C           -5.47084746226303       -1.18115247353404       -0.29572649456817
F           -4.42063658148831        0.40383861177425       -2.15946800178021
F           -2.33950513641490        0.78647202374803       -2.31503548064409
F           -3.49654593266101        1.76245045164909       -0.79058228150948
F            3.04271674011278        0.72972777248246        0.97301083060390
F            4.40794641843066       -0.81234052061677        1.54984939068275
F            2.72236827740317       -0.42539753135741        2.77280940966325
C           -5.93654416917287        0.01084148705401        0.25926576368727
C           -6.37760993973138       -2.07341365238906       -0.86334213889407
C           -8.18188401984973       -0.57923406757591       -0.35023009778891
C           -7.72487060374889       -1.76757679676694       -0.89600218310477
C           -7.28638410351653        0.30434710325303        0.23031434558451
H           -5.23911508084812        0.68614342060875        0.73190256414919
H           -7.64052497965313        1.22694081484255        0.66409787782868
H           -9.23508636141753       -0.34340477059918       -0.37610381129140
H           -8.42031204255069       -2.45752147408925       -1.35026540161130
H           -6.01889088865649       -2.99145209111771       -1.30533303815722
C            5.00317877545063       -3.84364141485086       -0.08356825964343
C            4.79978928754298       -1.63415638265880       -1.01476776407586
C            6.85029403497642       -2.85579427193216       -1.25320679172943
C            6.09566454595395       -1.71684599425532       -1.48396023241981
C            6.30160828615679       -3.91650758301910       -0.55157564288864
H            4.58501044396239       -4.66347150539695        0.48155999727827
H            6.88838092679992       -4.80365304770454       -0.36591430082420
H            7.86434204404470       -2.91646552433760       -1.61822826956390
H            6.51626529232198       -0.88760596277453       -2.03173050860979
H            4.21125147310473       -0.74808753688356       -1.20649717302692
