77
 energy: -148.069092703936 gnorm: 0.000415671199 xtb: 6.5.1 (b24c23e)
Si           0.21254614420639        2.03859960021331        0.73802498661508
O           -0.39201394513736        3.48371549520697        0.26239212237489
C           -1.10183580691638        3.85142874012694       -0.81816135538956
C           -1.99768538293091        4.91171944378431       -0.77044071666619
H           -0.94726014850584        3.28256569050460       -1.72458716409847
C           -2.23209288529093        5.63740950780013        0.42610111922910
C           -2.71960434494047        5.29401053373549       -1.93022790313002
C           -3.12915856862439        6.67576639836003        0.44867464637987
H           -1.68869263210205        5.35016596239212        1.31292542235443
C           -3.61104140127477        6.33644637591238       -1.88588181700994
H           -2.55230024641905        4.74901363444788       -2.84716600862282
C           -3.82495002853674        7.03699161412865       -0.70160627463737
H           -3.29808914624788        7.21972881288677        1.36707849638649
H           -4.15299619086997        6.61855534372842       -2.77726484688284
H           -4.52671954876687        7.85667030475623       -0.67656998106210
C           -3.50321063627095        1.57793307174704       -0.17272201157238
C           -2.40802149844537        1.18198346629826        0.38972377493669
H           -3.75674437883880        1.30150770983406       -1.18252704591777
H           -4.20932601722990        2.20147475064068        0.35131557576881
C           -1.26442874332950        0.87659805584932        0.92434322893978
H           -1.14336192966689       -0.01708825600474        1.51695997149971
Cl           1.49338414995282        1.45098035739608       -0.72429613719079
Cl           1.09425220899993        2.52129809478766        2.45707018009872
O            1.29129374888823       -0.57726929811861        1.63111733566637
O           -0.53168654182580       -1.42010267833250       -1.91509130947333
C            1.34997954294874       -2.01645155904477       -0.12236981978368
C           -0.07474083599312       -2.28192799631863        0.13923020500990
C           -2.27221152746096       -2.22337459974164       -0.70820715642087
C            3.28839605341274       -0.89321759103662        0.59119548880383
C            4.00131859672756       -1.35657277334622       -0.50894416269652
C            2.04131592642188       -2.59320768145991       -1.18416147696771
C            3.36185687403394       -2.22365863992009       -1.38824060211370
C           -0.53019267802028       -2.82291742226258        1.33914268296869
C           -1.89683277365711       -2.97513007083992        1.52194855976514
C           -2.79145017091609       -2.66717162859638        0.50132440961051
H            3.90288046809263       -2.59971687686037       -2.24159124451550
H           -2.27962752426307       -3.33352131536228        2.46392777787395
C           -4.23639754964712       -2.78455075701338        0.76151243282720
C           -3.07188049924806       -2.07396885403357       -1.97986944790881
N            1.96113468684384       -1.14888179509045        0.73071405738944
N           -0.94334487975471       -1.95549765275153       -0.86085155490041
C            3.93524989596704       -0.11770454809042        1.71484076964662
C            5.37936952080704       -0.92742157884859       -0.79902563623687
F            5.25122101882929       -0.39117298112184        1.80469843700728
F            3.44024427029429       -0.44576912575068        2.91278422180135
F            3.83915729795471        1.20982930717255        1.58989037292663
F           -3.28430665831149       -0.80483580845601       -2.34701048468292
F           -4.28337498820436       -2.64693136858864       -1.90183395579449
F           -2.46690035224949       -2.68807729389912       -3.00771248777974
C            5.67042726278248        0.42810469408215       -0.92589291143049
C            6.38057970213319       -1.86879920817679       -1.01384934447504
C            7.95032587958891       -0.10894637222527       -1.44730008366667
C            7.66277658415764       -1.45829333120911       -1.32785374601669
C            6.95206544275543        0.83085814520131       -1.25121144399970
H            4.88805804807983        1.15869171060671       -0.78594489244926
H            7.17151650624263        1.88299752117703       -1.35007955360337
H            8.95183145818948        0.20972372160920       -1.69422340521726
H            8.43887388353556       -2.19341524581391       -1.48002122334042
H            6.15514433479680       -2.92008977146485       -0.90949639476804
C           -4.77536996143931       -3.98516070263230        1.21069790880689
C           -5.05868235798207       -1.66984347848775        0.62422990171656
C           -6.94182388316554       -2.96680251038894        1.35103564465434
C           -6.40513630433373       -1.76465115518762        0.92075999995200
C           -6.12546632751637       -4.07582705887320        1.49511933242269
H           -4.13752818748009       -4.85093403795881        1.31315767654566
H           -6.54049403141865       -5.01444209772766        1.83044425246182
H           -7.99540824664020       -3.03903929833205        1.57488775571554
H           -7.03776838578060       -0.89666694998043        0.81367289293694
H           -4.63372683554358       -0.73075986250112        0.30035925133301
C            0.42614120654437       -3.20934384382820        2.41570346855928
H            1.29029775787346       -3.72955856303785        2.00640966561622
H            0.78489649715921       -2.30592237815911        2.91365799593644
H           -0.06048383177932       -3.84181087144833        3.15209025610654
C            1.37467096928639       -3.56511912905054       -2.09598613497135
H            2.10978592418156       -4.10675657908862       -2.68345276909809
H            0.76197151151277       -4.27308036436682       -1.54060097567894
H            0.71932743976842       -3.01618010357840       -2.77549979847880
