77
 energy: -148.159102186488 gnorm: 0.000697925674 xtb: 6.5.1 (b24c23e)
Si          -0.09971512308064        1.46535272325099       -1.37397536385773
O           -0.97022399700332        1.38093028546167       -0.03576386632091
C           -1.38066619202109        2.28468182886151        0.98349183783917
C           -2.37838100553363        1.54415138754115        1.83791620384958
H           -1.86569405907311        3.14054605732402        0.49486250855409
C           -1.96014429566362        0.48844985909701        2.63808503346896
C           -3.72392441004729        1.88345487284033        1.80230770504855
C           -2.88114773170531       -0.21127715517521        3.39723185434503
H           -0.91765494745684        0.21413376320377        2.65309213493355
C           -4.64337758793886        1.17685393639818        2.55768164398868
H           -4.05317477589209        2.70515763193091        1.18211435905047
C           -4.22309601394010        0.12764894776125        3.35606340345910
H           -2.54785040946608       -1.02362412124770        4.02636709313841
H           -5.68895971645325        1.44376512216004        2.52031621698361
H           -4.94166601863535       -0.42363599655603        3.94458068031257
C           -0.16737169942071        2.77319787282608        1.78735422386935
C            0.54489892135481        3.80177669615088        1.06170305199858
H           -0.51070818878308        3.17049915751191        2.74535972959894
H            0.49553635292444        1.92409313932565        1.97464338672440
C            1.08329196454125        4.64946588182368        0.41108561513866
H            1.58468981906533        5.39325778401947       -0.13206254888526
Cl          -0.76242238111651        2.83386459490418       -2.67113270806311
Cl           1.88675427071076        1.70008788512804       -1.12881715542652
O            1.11867099645383       -0.31132982727081        1.67302335780208
O           -0.29517645440603       -0.03034090037531       -2.02855037796464
C            1.24460708607219       -1.47518105235916       -0.28648566777942
C           -0.20647899795592       -1.61850569688244       -0.24390538334949
C           -2.27151340986631       -1.16963326215289       -1.37258063760319
C            3.17353110419431       -0.64387311438674        0.79117676872023
C            3.97719707704933       -0.99116055981147       -0.28369617043777
C            2.01952414256873       -1.90089508665883       -1.36937670457982
C            3.37707505382002       -1.63975423531561       -1.36240669792940
C           -0.90184939202075       -2.15418971107181        0.82517633417833
C           -2.29737246557456       -2.10075419081332        0.82247913201052
C           -2.99331879273917       -1.56355078306183       -0.26730157535586
H            3.98825475507152       -1.92490839853830       -2.20370017288944
H           -2.85123878691909       -2.45325358878681        1.67536085197755
C           -4.45781665443342       -1.44613817680028       -0.18615736046071
C           -2.87414393879767       -0.78504408688462       -2.68687587203480
N            1.82413005248760       -0.80911214340201        0.75542144347724
N           -0.88116031958929       -1.17011913381297       -1.37078355172759
C            3.67279801565575       -0.05311443397245        2.08704632177134
C            5.40856388939070       -0.65243210097159       -0.35791840562738
F            5.00059662341277       -0.16481034610061        2.23933711182464
F            3.15273318412257       -0.68790655715847        3.15053213501803
F            3.38377757376475        1.24710295637379        2.22645980969141
F           -3.13505068042929        0.53340820841881       -2.80742190459537
F           -4.03877134637825       -1.40998766429236       -2.92822022640170
F           -2.07241435599402       -1.09958982975180       -3.71612880663874
C            5.80442788170690        0.68127859148723       -0.31238661782646
C            6.36169704714431       -1.64813058545200       -0.53805551544996
C            8.09166142201193        0.01135037264849       -0.59003557043061
C            7.69976471006480       -1.31545822843079       -0.64404170766816
C            7.14225139121076        1.00730090155313       -0.43013975092092
H            5.05835538062372        1.45346467037177       -0.19606092926045
H            7.44490836433431        2.04278568212490       -0.39433273299119
H            9.13679257032919        0.26913743923806       -0.67328588820595
H            8.43750623583568       -2.09408261949988       -0.76865195216162
H            6.05227607150759       -2.68269742549813       -0.57170159857092
C           -5.22760493529207       -2.53292569191090        0.21679798522021
C           -5.07930330830198       -0.22729807535167       -0.43881090496184
C           -7.21030375579242       -1.18974336517880        0.09792228982255
C           -6.44843456564715       -0.10263838415120       -0.29514206101264
C           -6.59722987865675       -2.40535044430862        0.35119586171801
H           -4.74982460107338       -3.48346463669109        0.40290394033207
H           -7.18818150487923       -3.25680769348014        0.65472716003003
H           -8.28012868259304       -1.09093244938102        0.20596202577462
H           -6.92186737189613        0.84743633662352       -0.49216137753005
H           -4.48596466925574        0.62585659802862       -0.72875849131117
C            1.38670232580654       -2.62176822317179       -2.51309065122309
H            2.14171717468916       -3.13409380945141       -3.10260264572808
H            0.65100238629767       -3.34138659803850       -2.16079296314389
H            0.87133082271447       -1.91051589593001       -3.15738493641989
C           -0.18580983637906       -2.80178163505775        1.96411344624642
H           -0.86764243586904       -3.42806127093074        2.53185479302915
H            0.64651669342236       -3.40665991074791        1.60872649865481
H            0.21974633361517       -2.03610108812337        2.62732750314716
