77
 energy: -148.135515202598 gnorm: 0.000605574423 xtb: 6.5.1 (b24c23e)
Si          -0.09780600218941        0.89531688035516        0.08684998191000
O           -0.59943382092432        2.42232250553292        0.02109164280393
C           -1.51344949935818        3.18804125527645        0.77061232798905
C           -2.28131248913629        4.09297537955777       -0.15601539637016
H           -2.20647880685922        2.52299649402244        1.29696742400782
C           -1.65336793213753        4.67209056194403       -1.24996363952091
C           -3.61721481894601        4.37575032022113        0.09322012326885
C           -2.35510664055624        5.52227324996746       -2.08575030052044
H           -0.61910407269447        4.43650710724235       -1.44838380249187
C           -4.31520471704288        5.23235836454482       -0.73921141891839
H           -4.11036290668905        3.91796885128634        0.93852189341252
C           -3.68533367102870        5.80761899106117       -1.82962858827944
H           -1.86166647945604        5.96458537106711       -2.93871488166197
H           -5.35482139613049        5.44727897257422       -0.53936929702860
H           -4.23262297702707        6.47290339606857       -2.48147706035278
C           -0.72110764838598        4.01972581529852        1.79979394805047
C            0.00443312585804        3.14792186227907        2.69813199772366
H           -1.41697140199388        4.64957256885632        2.35942584833784
H           -0.01298107105202        4.65575995832245        1.26201475393194
C            0.59697868273614        2.37164270839601        3.38955347236968
H            1.11831754938281        1.70388406859935        4.00765292417905
Cl          -1.56001338809761        0.22087010555695        1.56636033958887
Cl           1.46956114184068        1.48420978370301       -1.25929020636251
O           -0.59475924487954       -0.23182414913612       -1.12330783425667
O            0.96064564341804       -0.15124601409193        0.99970139927791
C            0.02675538408751       -2.33698621763995       -0.30613808485086
C            1.41993573100597       -1.93447232163604       -0.43659061077143
C            3.14578048334144       -0.40717047000610        0.24448576145265
C           -2.28453879100934       -1.73215153869483       -0.58713101387920
C           -2.70386856246119       -2.87682762851883        0.05005695988879
C           -0.36941233583965       -3.55926415409283        0.24386194213299
C           -1.71502786722324       -3.80182370329001        0.45141066064819
C            2.32781031005154       -2.57171892842392       -1.28651665161947
C            3.60363477814881       -2.05570449086057       -1.41805163182097
C            4.03551005840495       -0.95021940259845       -0.65434350048073
H           -2.02543182250075       -4.68935399660502        0.97826851814188
H            4.27704458962887       -2.46879444016674       -2.15126757249656
C            5.35704475370224       -0.36382570664940       -0.90906708710591
C            3.53914720295176        0.57015717178218        1.32908898154579
N           -0.95533128601082       -1.47305055641438       -0.73250728621502
N            1.87119488708816       -0.87787819466743        0.31996557775930
C           -3.20260042196737       -0.78884948262472       -1.33083314152585
C           -4.10742912621086       -3.11430494170531        0.40987255509437
F           -4.38702293104626       -1.36628849884575       -1.59850194400635
F           -2.69437958444128       -0.48329486248311       -2.53489017665824
F           -3.48005531575079        0.36244266462750       -0.72127539535337
F            4.86227439487248        0.51631096623027        1.57101506014742
F            2.97080356881535        0.23985883934459        2.49990735201458
F            3.25347434663468        1.84950055967393        1.10638706221799
C           -4.80669924996113       -2.12560908254467        1.09985493032897
C           -4.72431203825178       -4.33030007228501        0.13385000009494
C           -6.72980245342429       -3.55752104716542        1.19795445112933
C           -6.03428313129110       -4.54500885394162        0.52023870536156
C           -6.11244182258488       -2.35237188333453        1.49116943479133
H           -4.31126866790806       -1.19731781324263        1.34305204067692
H           -6.64998326888867       -1.58488201738695        2.02672217592748
H           -7.75236383192319       -3.72856844059230        1.49932335502344
H           -6.51376471345694       -5.48508035777832        0.29136921192091
H           -4.18387273086801       -5.09367560341583       -0.40660980634224
C            6.50119391974707       -1.15486347425223       -0.93686592177189
C            5.44959538876646        0.99771692580812       -1.19226781707333
C            7.82032949126875        0.76936819298313       -1.49136398251344
C            6.67990660811455        1.55614346027228       -1.48313142235170
C            7.72904948410006       -0.58554439058595       -1.21901464860087
H            6.42870095266137       -2.20879564972085       -0.71101122756943
H            8.61672118552065       -1.20044001673721       -1.22593374143154
H            8.78053159682986        1.21088111215536       -1.71250464757291
H            6.74814969484328        2.61029914363316       -1.70403559442785
H            4.55152670812398        1.59722739247170       -1.20684253156547
C            0.63471142683496       -4.55799794277527        0.72826940522796
H            0.66948959966299       -5.40924686810073        0.04985433310766
H            1.62781099077091       -4.12669539788754        0.80194937001565
H            0.33829662265496       -4.92826573319245        1.70676051857045
C            1.91166429041894       -3.72245699381910       -2.14844367217805
H            2.27373959393460       -3.56657106889583       -3.16186440617780
H            2.35416784353315       -4.64606773958098       -1.77815875230286
H            0.83255790783983       -3.83471185431942       -2.17524674564736
