77
 energy: -148.157210113638 gnorm: 0.000792288184 xtb: 6.5.1 (b24c23e)
Si          -0.06603902981212        0.81834503201317        1.48089452613974
O            0.77490155303349        1.17164762763641        0.17544114701142
C            0.95679923298906        2.17054625425602       -0.81523785694116
C            2.33661396317193        1.96068093371630       -1.38773797931796
H            0.19580667315114        1.98483032774351       -1.58259877242168
C            3.45666703961254        2.07347256667464       -0.57386778301093
C            2.49838685574689        1.62539384175546       -2.72442691678171
C            4.72125890337231        1.86240278974593       -1.09300442453951
H            3.33755974327363        2.31891688192503        0.47126274031954
C            3.76404809194872        1.40770050589143       -3.24087058471081
H            1.62714573395572        1.53290260193293       -3.35534415587822
C            4.87719472677008        1.52505013314644       -2.42638145963652
H            5.58803141253203        1.96004074082057       -0.45711863051015
H            3.88148098680167        1.14606524294485       -4.28240057875120
H            5.86499957407860        1.35262034501954       -2.82710931190396
C            0.78703826029164        3.58752381493150       -0.25065762495269
C           -0.61016134909937        3.89347686656606       -0.02718636505425
H            1.20173486055861        4.29689626478095       -0.97199420004432
H            1.34053896622118        3.67612840025323        0.68777372724076
C           -1.77713426990095        4.10373538964078        0.12951834258368
H           -2.79906933811508        4.29834649852813        0.25906296038729
Cl           0.68588560902954        1.68943576864757        3.12006396171493
Cl          -2.05612138459458        1.10792275864370        1.41865535931418
O           -1.20456742672696        0.34414237038100       -1.94826172481563
O            0.13835737846941       -0.80909178663226        1.61493227954910
C           -1.28666548796460       -1.51874375648827       -0.63327472718848
C            0.17198813062816       -1.57387308240082       -0.65600215806957
C            2.13073076398215       -1.72257005058243        0.71774265161354
C           -3.24513769717225       -0.37048766178713       -1.28274043627383
C           -4.03110019736138       -1.14626171893202       -0.44359285470918
C           -2.04816025453860       -2.38617134786175        0.15871449881360
C           -3.41118561191433       -2.18030762412615        0.25627410564536
C            0.96415624162235       -1.55765616654259       -1.79087308399990
C            2.35274643554361       -1.50616580486215       -1.64319159364700
C            2.95367521156889       -1.58883459510181       -0.38029085489474
H           -4.00913028622219       -2.80726821142651        0.89811724680925
H            2.97806396702854       -1.40617447096679       -2.51407348614519
C            4.42105864493088       -1.56361184401050       -0.27943037513328
C            2.57979482910242       -2.03725955774530        2.11133831362478
N           -1.89105720143935       -0.50214758350798       -1.31766380973439
N            0.75194215311608       -1.64141379051582        0.60034353461706
C           -3.79165050195077        0.69011537584559       -2.20728319667300
C           -5.45879847933345       -0.87840298924775       -0.20493183566478
F           -5.10754359759062        0.54145221811484       -2.43630859469783
F           -3.22895289851668        0.64077950283729       -3.42277498741341
F           -3.63061991257516        1.93770906907070       -1.74681012041861
F            2.82911675308823       -0.95222085529304        2.87091262150281
F            3.70075131672002       -2.77731512023837        2.14833057769261
F            1.65392483137681       -2.74802691168653        2.77603795346015
C           -5.84908081522661        0.36302598513213        0.29006082484536
C           -6.41053203576575       -1.87409461948342       -0.39319783862973
C           -8.12712135753230       -0.38507849185108        0.37282274342572
C           -7.74117548084032       -1.62282082491826       -0.11310440862041
C           -7.17905012655977        0.60376752841695        0.57794997995559
H           -5.10301936859422        1.12453294132897        0.46177817205596
H           -7.47671125066748        1.56696782332644        0.96378690762146
H           -9.16618192195062       -0.19174053122808        0.59346379944493
H           -8.47805014762176       -2.39569781782838       -0.27338394737002
H           -6.10660664061314       -2.83597156662044       -0.77974189097410
C            5.19008710611950       -2.33344847187360       -1.14788558259163
C            5.06039793205999       -0.74053012195469        0.64277950335383
C            7.19916306804637       -1.47016233514756       -0.16417544017437
C            6.44101252707342       -0.69771354212708        0.69886678372045
C            6.56998768323488       -2.28837475706609       -1.08729379371145
H            4.70097569526764       -2.98608413833339       -1.85574756438178
H            7.15648045388790       -2.89574968508679       -1.76067097207299
H            8.27735367973325       -1.43665242767694       -0.11650978243302
H            6.92670044091997       -0.05845705462956        1.42095781822355
H            4.47684868264994       -0.12096678467725        1.30522072944408
C           -1.40120561284214       -3.51229862437771        0.89533507827226
H           -0.62008868977217       -3.97461467673953        0.29628285075488
H           -0.94194274885961       -3.14227256627222        1.81105487012420
H           -2.14175094012040       -4.26060238709165        1.16396331016204
C            0.36522545162233       -1.63473728436108       -3.15515482708130
H           -0.09116701590023       -0.67603761042223       -3.40734243769129
H            1.12668273368572       -1.86947098780479       -3.89281009734334
H           -0.41746022032367       -2.39053116413177       -3.19172785243524
