77
 energy: -148.137084997796 gnorm: 0.000677092925 xtb: 6.5.1 (b24c23e)
Si          -0.20697417448755        1.10383636741655        1.01814638999289
O            0.79353805696022        1.80358187003591       -0.03775067488955
C            1.53992614430079        2.99563195367644        0.01558758855233
C            2.83462255955152        2.78340333295544       -0.72596283675186
H            1.73559876594032        3.25465715090160        1.06313651531150
C            2.85163785532807        2.00215692808948       -1.87451920595664
C            4.00907018851080        3.38177214607203       -0.29160842895631
C            4.02822938148669        1.82406873719828       -2.58086783086361
H            1.93685931722812        1.52800378475115       -2.19760012456311
C            5.18400605422179        3.20737698693729       -1.00202392230149
H            4.00123574125561        3.98100586389320        0.60663486240251
C            5.19581317824302        2.43102249312960       -2.14863064565568
H            4.03536620897805        1.20955149722134       -3.46985203175724
H            6.09397638550719        3.67680835019315       -0.65797876545192
H            6.11281977509865        2.29626130936260       -2.70390329954294
C            0.73530687874796        4.12829209586777       -0.65307169295992
C           -0.52307866008314        4.33748520967669        0.02898671015388
H            1.33171385594913        5.04387281454432       -0.63652705891431
H            0.53720817589782        3.84707356307512       -1.69098935874840
C           -1.56710411019412        4.45800053349518        0.60085489485767
H           -2.48551033077193        4.56835984295127        1.09458642540173
Cl           0.51698815206560        1.97863431253378        2.80229225467106
Cl          -2.18304777146703        1.24821131928843        1.65500700405566
O           -0.83933217531850        0.31626501966461       -0.59966494370286
O            0.29955825045373       -0.46575735793138        1.51982656010992
C           -1.36369641813330       -1.88512261890510       -0.13727475777435
C            0.05853997926362       -2.13309822997358       -0.13329021623125
C            2.23326004852568       -1.41413588492786        0.61762160454563
C           -3.06600317425513       -0.29892820839225       -0.68334310644826
C           -4.06544825396635       -1.19220253957345       -0.34783533931296
C           -2.34983315456794       -2.83732717743879        0.17545124157028
C           -3.67310647721313       -2.46898831965168        0.11323914318648
C            0.67330562097643       -3.06942690727017       -0.97859729330405
C            2.04727709057013       -3.09593634133693       -1.07064118987953
C            2.86157432120270       -2.24189229374170       -0.28142393036685
H           -4.43918223500984       -3.15438972938720        0.43882697060085
H            2.52793403440040       -3.73654222890994       -1.79150697910435
C            4.31071950478813       -2.23603918710912       -0.51939663170166
C            2.97391080254035       -0.65450506754117        1.69576812853487
N           -1.76597938207309       -0.62380536077887       -0.50017190883566
N            0.87184836928757       -1.34179820648602        0.65852796303074
C           -3.34133376394561        0.96752148559530       -1.47074554110769
C           -5.48963908217929       -0.84009604210361       -0.37155413889045
F           -4.45220139870187        0.80625266689696       -2.22173131995371
F           -2.37284443260817        1.22031318734906       -2.35804009295537
F           -3.53421568763416        2.08216602607288       -0.77175602719582
F            3.14230112524375        0.64342587139609        1.42647233115213
F            4.20581016730722       -1.15579427265312        1.89810178455349
F            2.37503750574657       -0.75566504435786        2.88416728081917
C           -5.92412092996779        0.32995126798932        0.24914485828624
C           -6.42190244186625       -1.69570096482580       -0.95282687312766
C           -8.19222198164845       -0.20350635756547       -0.32895273030031
C           -7.76560890554009       -1.37264056384786       -0.93707651963473
C           -7.27050490309980        0.64151410566894        0.26744637059472
H           -5.20578883132124        0.97266333063678        0.73521673840833
H           -7.60120863720229        1.54806763533530        0.75090154174688
H           -9.24248301606925        0.04659708988802       -0.31760718464972
H           -8.48182492671311       -2.03425545509120       -1.40134339031728
H           -6.08607446951323       -2.59970189228714       -1.43983696276979
C            5.02255800415565       -3.43095520012257       -0.58458425587729
C            4.97218310090260       -1.03257516703638       -0.75708581886681
C            7.03001058876302       -2.21959400258478       -1.09123801896106
C            6.32404663204946       -1.02894543657934       -1.04142580310996
C            6.37674728567997       -3.41922157496721       -0.86119669376244
H            4.51635802062109       -4.36505698475335       -0.38975380507338
H            6.92427644819113       -4.34927277429983       -0.89651001609659
H            8.08751727391843       -2.21375857893284       -1.30846671084015
H            6.82382673302733       -0.08978789155068       -1.22248892206548
H            4.42404565593377       -0.10276495571445       -0.73344186169745
C           -1.97873041361098       -4.18966570992664        0.69873143708376
H           -2.23086260237728       -4.96254627911985       -0.02538387422984
H           -0.91973340468564       -4.24888601030150        0.92900976744884
H           -2.54571177505594       -4.39224813051378        1.60490545302911
C           -0.12956875813384       -3.95197918024688       -1.88317336488263
H            0.36586160897536       -4.03202875322784       -2.84767911014965
H           -0.19855175651176       -4.95460556388702       -1.46435995868073
H           -1.13306641187478       -3.56695070390669       -2.03384465093996
