77
 energy: -148.158331923826 gnorm: 0.000513487232 xtb: 6.5.1 (b24c23e)
Si           0.04791971381861        1.31385253973749        1.21173438283460
O            0.88298058981745        1.35876214378113       -0.15085537150438
C            0.73988680724729        1.95304326418090       -1.43493005134031
C            1.75545887937683        1.30349705894088       -2.33922734765730
H           -0.27037599109155        1.73347608051993       -1.79661156819482
C            3.09980297949700        1.30004846987847       -1.99052456627619
C            1.35412143985493        0.69100661617784       -3.51766645513155
C            4.03379478966680        0.69318670447936       -2.81054302387153
H            3.41399424436444        1.76410820492567       -1.06792782728153
C            2.28978592637493        0.08762758348342       -4.33990590331897
H            0.30663243145934        0.68038279732331       -3.77660911305113
C            3.62944075732190        0.08772506173736       -3.98845074230298
H            5.07636769055156        0.68936184651584       -2.52786257101262
H            1.97134800499561       -0.38759572726553       -5.25612409941874
H            4.35866862728631       -0.38582230625682       -4.62966279796761
C            0.95238894575060        3.47228983871446       -1.36336546337073
C           -0.11552924717761        4.12207383882681       -0.63484524700751
H            0.99147705355591        3.86181940189659       -2.38388700273374
H            1.90612296063141        3.67917088508755       -0.87054047474004
C           -1.00791132850474        4.62373769999575       -0.01548411711112
H           -1.78722896843543        5.07697465783378        0.52011015662388
Cl           0.72180944296140        2.61529846440599        2.56862875676231
Cl          -1.94662005847098        1.49875482314093        1.00640704955928
O           -1.28061204835795       -0.32715169586730       -1.80361255433469
O            0.33269020356094       -0.18823782549912        1.81930372116522
C           -1.18354741416228       -1.66323494606809        0.04288927982787
C            0.27142984389485       -1.66388574077094       -0.06813399138758
C            2.32025426167962       -1.26249954843319        1.10808400258298
C           -3.24193600091870       -0.92908108416095       -0.85304970194941
C           -3.94506290487756       -1.43283901860907        0.23055727282782
C           -1.85261492600191       -2.25035373390759        1.12266369976920
C           -3.22500668328804       -2.11282075503847        1.21242219430502
C            0.98474341876794       -2.01211715983568       -1.20229623827016
C            2.37476622518629       -1.87563470163638       -1.19346041068232
C            3.05842075663420       -1.48835312322876       -0.03381133390320
H           -3.75552105894040       -2.52095379809232        2.05780922816002
H            2.93371284022334       -2.06507688919333       -2.09403748519652
C            4.52375416370560       -1.35922929501922       -0.07505208627921
C            2.88837334161034       -1.04781712528423        2.47676909173369
N           -1.88238434603258       -0.96893574041391       -0.90290500580067
N            0.93407908062623       -1.28515459638874        1.08818760365280
C           -3.87436059383500       -0.28849107866955       -2.06417395468806
C           -5.39009079799329       -1.22635369694405        0.42228915968769
F           -5.18825676014650       -0.54401762250100       -2.16247472883326
F           -3.34951463313794       -0.76073479603053       -3.20619711549094
F           -3.74606709392947        1.04434287252810       -2.09480288544069
F            3.12754607540436        0.24420269113892        2.77930059337360
F            4.05483086930328       -1.68901014544243        2.66449200567174
F            2.06366617517711       -1.50567695096241        3.43123578294419
C           -5.90162520228114        0.06709462566256        0.48027342375850
C           -6.23750445947421       -2.31051490094938        0.62212021134996
C           -8.09187441234666       -0.81666230644157        0.90342314538266
C           -7.58516111183759       -2.10425486226826        0.85268004109767
C           -7.24775276423519        0.26640976976355        0.72150190873689
H           -5.23737901391904        0.90848815469108        0.34906531868911
H           -7.63932235416647        1.27128190228392        0.76683310254909
H           -9.14401168706317       -0.65747624694984        1.08588799278997
H           -8.24060215112888       -2.95070037694449        0.99389116717605
H           -5.83986428959412       -3.31386164343840        0.57400033509005
C            5.29453899280352       -2.36078740839272       -0.65837802777268
C            5.15195720732938       -0.21516086543625        0.40867228904248
C            7.28538672093487       -1.08322208393370       -0.26321891679114
C            6.52436315711928       -0.07965260550385        0.31207605576914
C            6.66726056092848       -2.22463948242417       -0.74582631619280
H            4.81437498293781       -3.25648330378693       -1.02351091365455
H            7.25705149564456       -3.01163004401838       -1.19195173133150
H            8.35749548599640       -0.97665380999124       -0.33438702843549
H            7.00085015359144        0.81311929639520        0.68846903196165
H            4.56453406065807        0.57626433084254        0.84757415536823
C           -1.09930321434825       -3.01131149486065        2.16298646262860
H           -0.32491835687874       -3.62738796627563        1.71155123563704
H           -0.61381303605539       -2.32014573306374        2.85065687235296
H           -1.77619458021248       -3.64157193408885        2.73296431256008
C            0.30209090140842       -2.56225024473825       -2.40881907820291
H           -0.20136538627513       -1.75283552385024       -2.93946918111704
H            1.02386711693160       -3.02307891623131       -3.07641378585259
H           -0.45187450146216       -3.29592976978893       -2.12860282852978
