77
 energy: -148.138260420073 gnorm: 0.000308222178 xtb: 6.5.1 (b24c23e)
Si           0.24226508953840        1.80991404500868       -0.24044651836074
O           -1.30944815319503        1.59367385243607        0.20116242629420
C           -2.10592370095581        2.24881137040745        1.17616496077247
C           -2.59235983614854        1.15954512049911        2.10544349394880
H           -1.46678875831773        2.93970952781918        1.74085923682612
C           -1.63489538385603        0.53336536803691        2.89874350913191
C           -3.90523008295960        0.71579948900755        2.16337460194688
C           -1.98331193787270       -0.51350279006951        3.73017609979690
H           -0.61349824563952        0.88321023638503        2.85995886205696
C           -4.25104027002713       -0.34518761384831        2.98456531788168
H           -4.67493041509033        1.19506154120429        1.58024283178982
C           -3.29351446676440       -0.96377392200005        3.76751408777150
H           -1.23320328477596       -0.97052805854509        4.35969678748099
H           -5.27611194000463       -0.68533604628413        3.01149478713594
H           -3.56880464421580       -1.78492081604993        4.41387410054197
C           -3.19517961861143        3.06960556731818        0.47885553634740
C           -2.57697628228367        4.11183581626048       -0.31620445652297
H           -3.84489378006029        3.51484295751467        1.23663409554332
H           -3.78510509564971        2.43331319762107       -0.18375174447329
C           -2.01331298114889        4.93512840840557       -0.97517281096970
H           -1.52915481416430        5.66413846293851       -1.55238502626346
Cl           0.81683382973961        2.67304388902995       -1.97913238835282
Cl           0.77125010389518        3.38056945509013        1.05596874373164
O            1.27457152800084        0.80029750798619        0.71372110707844
O           -0.02087629549761        0.25244429125829       -1.36563128965222
C            1.31817912116320       -1.50188218337991        0.13324112282283
C           -0.12019684951448       -1.53173921831674        0.09650771972127
C           -2.05357185938514       -0.80169357793593       -1.09368963972986
C            3.32921064626657       -0.17162961871238        0.22956607447100
C            4.10987013525580       -1.24671386117434       -0.11309804526276
C            2.10448980209370       -2.63893552943777       -0.12771066052584
C            3.46600807847785       -2.50319738147016       -0.26559293492422
C           -0.93008616838843       -2.37304201168739        0.88822724047895
C           -2.28671364557242       -2.36661095921962        0.69079484517118
C           -2.88806389483343       -1.61436329368143       -0.34729761727001
H            4.06674312152014       -3.35016540930854       -0.55395652245238
H           -2.92612577868732       -2.93091913216507        1.34999501452584
C           -4.34211168202568       -1.70007654622879       -0.51549573087379
C           -2.48025037508664       -0.08644176192469       -2.35805216432643
N            1.97213578201214       -0.29588656509922        0.32325337820820
N           -0.74031845900227       -0.70285352029092       -0.80295064393955
C            3.88221582839277        1.17226011479111        0.65283859800106
C            5.54866381059351       -1.17148301097854       -0.40674842154321
F            3.39631488001713        1.55033496838947        1.83977730888381
F            3.63729341832007        2.14313436024276       -0.22976060865349
F            5.21283699637505        1.14751905626789        0.82579506743710
F           -2.82247120575201        1.19154647204279       -2.19417518821963
F           -3.54746136007741       -0.69131666200586       -2.91815299767385
F           -1.53807153360423       -0.13656583893507       -3.30220716688563
C            6.02131460477261       -0.28781386022887       -1.37437396189003
C            6.43731442593587       -2.04154638360870        0.21761431927577
C            8.24769680434839       -1.12455256727105       -1.05974620488211
C            7.78183790928564       -2.00957485653008       -0.10206706179239
C            7.36481918494008       -0.26780468146634       -1.69634929824627
H            5.33147844588801        0.37497007076182       -1.87585729571163
H            7.72315232348604        0.41964133568740       -2.44719844335476
H            9.29756194085215       -1.10278978980213       -1.30995311348596
H            8.46745397064301       -2.67728067531039        0.39799171512837
H            6.07372514037052       -2.72333408450063        0.97257341576629
C           -4.97498673822815       -2.94022222961866       -0.43842752077625
C           -5.12256135669970       -0.55726619856190       -0.67945525358637
C           -7.11658801889126       -1.89030807299938       -0.69140114706146
C           -6.49770152561016       -0.65334599104172       -0.76412581842044
C           -6.35025783249093       -3.03303246593519       -0.53320645926609
H           -4.38103779293778       -3.83621063907804       -0.33284820465642
H           -6.82614324122582       -4.00116634093744       -0.48453671007090
H           -8.19130141267048       -1.96370531469196       -0.76082421702654
H           -7.08939613847533        0.24113636568040       -0.88805539809481
H           -4.64816479346537        0.40943269925054       -0.73027803060047
C            1.49003329827397       -3.97758248114667       -0.39772915621711
H            1.58505061635387       -4.61949365149713        0.47630717266033
H            0.44046663719729       -3.89537946219726       -0.66072097185259
H            2.01998005579387       -4.45852834246306       -1.21648982421048
C           -0.34968055096880       -3.16535874552830        2.01729540663005
H           -0.94504452849731       -2.99398597169582        2.91123005096226
H           -0.38515674459538       -4.23118809016856        1.79931575627425
H            0.67766694412136       -2.87710932231190        2.21690387558392
