77
 energy: -148.133033922172 gnorm: 0.000625365135 xtb: 6.5.1 (b24c23e)
Si          -0.16525144442173        1.17494356582088        1.07399080054375
O            1.44329411247766        1.24487300189950        0.83431733026912
C            2.33965195701885        2.33351799018893        0.66249113791453
C            2.07014553051155        3.01156800109816       -0.66178845801483
H            3.32493339041234        1.84640295278599        0.60358163576548
C            1.94915197867520        2.19525936514069       -1.78187738570804
C            1.92877759800407        4.38273520214087       -0.81303838128326
C            1.67478977591760        2.73316741760285       -3.02430054567828
H            2.06162820382278        1.12494144482296       -1.66882661405394
C            1.66081338400558        4.92184636656572       -2.05989129197191
H            2.00885921646257        5.04026150295278        0.03684210145981
C            1.52891490748223        4.10250496892095       -3.16634173078196
H            1.57497839366847        2.08386155170426       -3.88253429707923
H            1.54395508202879        5.99040326273404       -2.16268805847226
H            1.31054512760100        4.52722932797130       -4.13503862319556
C            2.35045131388582        3.25720778952943        1.88608573782255
C            2.50169863016700        2.47554797528632        3.09579618418900
H            3.18520933929324        3.95606179677247        1.79208979951880
H            1.41027854441103        3.80888915525466        1.93991086264038
C            2.59742815248006        1.79514820615666        4.07463637019425
H            2.68471508052952        1.21267116780399        4.94198235250924
Cl          -1.09310081682559        0.88484340188667        2.85505837089161
Cl          -0.69286521217704        3.19309102413779        0.77740558070052
O           -1.01176858163621        0.79886485689383       -0.39115455314807
O            0.14161557236579       -0.74675129925129        1.21207876340111
C           -1.21056462736398       -1.51094201014248       -0.88360304314004
C            0.22949542836278       -1.59542824931230       -0.91900005170337
C            2.22112003560894       -1.37436505989117        0.37043364555837
C           -3.14368433912098       -0.15409157138263       -0.41212767904816
C           -3.97215539166168       -1.24827250512255       -0.46118551332507
C           -2.04627985598477       -2.62504089330256       -1.04567983674750
C           -3.39609237841597       -2.49933282012173       -0.80008009462868
C            0.97911692172233       -2.02066749753286       -2.02827201306909
C            2.34806206007858       -2.08929860139654       -1.91507143637840
C            2.99406093247594       -1.78897534213670       -0.69730299058456
H           -4.03199438945751       -3.36889370520596       -0.81566473565866
H            2.95334125466454       -2.35803660449412       -2.76627501628417
C            4.46461386721348       -1.91328095567609       -0.62980769869432
C            2.87232757762708       -1.20790143445848        1.72681746619623
N           -1.79326015202178       -0.29597794517360       -0.56851366948644
N            0.88391394806526       -1.24813169407097        0.24221089066846
C           -3.66271755126553        1.26452053232644       -0.33499612654259
C           -5.39845122529143       -1.20142225191723       -0.11261659254697
F           -3.02014308730128        2.07821615042313       -1.17724359626129
F           -3.60572442191829        1.79960450380303        0.88541784136570
F           -4.95116567884066        1.33603294655968       -0.71785850759932
F            3.75869406139232       -0.20721419854637        1.77086530457905
F            3.58819974311356       -2.32987771130491        1.99755075911143
F            2.05810007090785       -1.05912070367226        2.75687509710311
C           -5.80257895533965       -0.62677636878209        1.09118943168311
C           -6.34778988199010       -1.79342606397973       -0.94091621789914
C           -8.08035632079067       -1.20861040745484        0.61046786093318
C           -7.68274501336845       -1.78846466128042       -0.58276760965428
C           -7.13796117762699       -0.63257001957176        1.44639202497454
H           -5.06777382404570       -0.18924652717903        1.75064388340101
H           -7.44263428708517       -0.18444694856008        2.37968390828419
H           -9.12343483106659       -1.20638006285289        0.88864918593335
H           -8.41487433420798       -2.23749623221916       -1.23724886569453
H           -6.03818812134988       -2.23186049018715       -1.87832499995881
C            5.05232758044656       -3.17206941903560       -0.69791808403435
C            5.27027244018809       -0.78239545146908       -0.56277676721793
C            7.22779157954050       -2.16979296091754       -0.58195210276157
C            6.64679587604706       -0.91407213733377       -0.53699567091861
C            6.42864471193217       -3.29772894658092       -0.66524936293906
H            4.42489044779074       -4.04929056239919       -0.75496044927866
H            6.87757931026807       -4.27879656623064       -0.70420882860093
H            8.30233366219760       -2.26965656891962       -0.55466771549312
H            7.26526591049146       -0.03131036437672       -0.48065004961004
H            4.81835902958803        0.19783103367727       -0.53933209999326
C           -1.49144586805585       -3.98172586457104       -1.35164549574750
H           -1.64546138594973       -4.22157107982400       -2.40255455393269
H           -0.43083569588868       -4.04372852167941       -1.12996020875021
H           -2.01751143105014       -4.72968390594058       -0.76343626758204
C            0.32596650884722       -2.28861516154423       -3.34767957084158
H            0.87530229236744       -1.77445057880303       -4.13363933648498
H            0.34873475136691       -3.35280006743687       -3.57587978193342
H           -0.70389901199834       -1.94543646962522       -3.35664774721808
