77
 energy: -148.137677145459 gnorm: 0.000432860729 xtb: 6.5.1 (b24c23e)
Si           0.08868454982597        1.42796290169498       -0.10922416052398
O           -1.46300563350687        1.30428474135875        0.37575549443568
C           -2.19283690366388        2.23461133720705        1.15275084223068
C           -2.42611981349626        3.53306502587583        0.42448230359303
H           -1.63082285051389        2.43138192666224        2.07302897841539
C           -2.58859836201902        3.55425258396002       -0.95242151703995
C           -2.50311292294337        4.72116098098576        1.13852035272356
C           -2.81177808622778        4.75077057520781       -1.61023388501853
H           -2.52397747580266        2.63405405409717       -1.51083272816542
C           -2.73443297224087        5.91503906028753        0.48100672075817
H           -2.36419571954809        4.70978507159663        2.20972779137225
C           -2.88756466020673        5.93261092154476       -0.89517817974444
H           -2.92461403449003        4.75718175880594       -2.68407389317613
H           -2.78513191468918        6.83584942368707        1.04314627723947
H           -3.05917249368780        6.86707784070683       -1.40895448741272
C           -3.54532217570685        1.59701477825679        1.51629930390012
C           -3.36035218512132        0.36613405794872        2.25134587901750
H           -4.10851765401795        2.30809303292912        2.12589146044182
H           -4.10211063705286        1.40795784979203        0.59623708842837
C           -3.16607196958451       -0.65510311556345        2.84426369618449
H           -3.02486256964919       -1.54030017304028        3.38796212540492
Cl           0.76495869627655        2.04127777475768       -1.93242643771892
Cl           0.61434416664872        3.18111266940027        0.95170569560536
O            1.12179852779090        0.52274394264938        0.94339438155393
O           -0.21069193491189       -0.19929160612445       -1.05846825957554
C            1.43000545647770       -1.74429099669404        0.34175800434297
C            0.00732156863332       -1.95731556229987        0.41540545536053
C           -2.09252159407067       -1.49178456310802       -0.61496881576984
C            3.27243290698750       -0.19392226010685        0.40584824585204
C            4.14648944080898       -1.14661469736525       -0.05702373242045
C            2.32217236580144       -2.76518448640499       -0.03390534646573
C            3.64333754277918       -2.45758143386700       -0.26092203233049
C           -0.60262824889851       -2.94298105718967        1.21830105717369
C           -1.94898715601875       -3.16630638518161        1.08596527085133
C           -2.72485227892316       -2.47213151398353        0.12771394713740
H            4.31385405106499       -3.20651957254760       -0.64910014906242
H           -2.44552401663967       -3.87824811936565        1.72636601217330
C           -4.14610827029861       -2.82634809728037        0.00466080781486
C           -2.78282401530609       -0.81443390994199       -1.77930525307756
N            1.94539662198198       -0.47868680497074        0.55418100376990
N           -0.78873314677145       -1.20405534142687       -0.41453069142905
C            3.72440913429434        1.16533884264099        0.89654457375420
C            5.54429339582649       -0.87200686643681       -0.41741015370680
F            3.14203374097418        1.50255813562000        2.04876476646890
F            3.51988563558814        2.14560382859819        0.01608984385132
F            5.04179909245445        1.17491581252669        1.17254199855757
F           -3.47111737377278        0.28291031665040       -1.44840043327354
F           -3.67782707940058       -1.65154998438165       -2.34443421788943
F           -1.96388555847463       -0.47931302347154       -2.77249921425323
C            5.84965774431671        0.16394669982857       -1.29805886534194
C            6.56556415366457       -1.69054342135283        0.05667456105620
C            8.17355758525559       -0.42495935380746       -1.19323030564721
C            7.87430609621526       -1.46044709021034       -0.32364003249982
C            7.15918632095506        0.38216960433395       -1.68145744964287
H            5.05875065456201        0.78751033705232       -1.68783164273917
H            7.38757776263908        1.18671946909568       -2.36352582341135
H            9.19615852938611       -0.24753060303417       -1.49015498917174
H            8.66261344890121       -2.09051809045866        0.06048633980454
H            6.33201450062016       -2.48900298094159        0.74572693704923
C           -4.50154758315066       -4.16370362645723       -0.16025673469855
C           -5.14840860118813       -1.86628122552669        0.11133367662029
C           -6.82334349223381       -3.56632276228791       -0.14481308428534
C           -6.47747141677455       -2.23787851817967        0.03749965303123
C           -5.83181784373233       -4.52822744787368       -0.24294029229343
H           -3.72805959699782       -4.91275559440919       -0.24991521804856
H           -6.09531337610012       -5.56576644356755       -0.38462203216819
H           -7.86242127982489       -3.85207089917520       -0.20760982356400
H           -7.24629761014341       -1.48526352562160        0.12425536488666
H           -4.88375378214335       -0.83549142383666        0.27943932904770
C            0.16890615833192       -3.65559792271430        2.28553903544273
H            0.20630060262804       -4.72508324802211        2.08756189190453
H            1.17972228025670       -3.27049988365995        2.37199814775348
H           -0.33537725024682       -3.51888546764704        3.24053778197242
C            1.85116180168787       -4.15575817143890       -0.32927636638761
H            2.07348568368204       -4.81461305754513        0.50831206337928
H            0.78443704489530       -4.18967942043011       -0.52593905171276
H            2.38078927798289       -4.53944560680741       -1.19784686069544
