77
 energy: -148.132932633244 gnorm: 0.000590282169 xtb: 6.5.1 (b24c23e)
Si          -0.06540410722868        1.46690111986774        0.85499609514301
O            1.49522665430407        1.38482248712838        0.40415217916969
C            2.40020514873973        2.24290144395237       -0.27887001220117
C            1.94278973077085        2.39805937492225       -1.71209215354219
H            3.34025776097057        1.66822542020227       -0.27823880531646
C            2.03188710205757        1.28038567732803       -2.53526269503700
C            1.39099179076924        3.56489253723302       -2.22114531286665
C            1.56747006092480        1.32033078780561       -3.83635616055903
H            2.47228536421294        0.37245742473398       -2.14529192509718
C            0.92740464886974        3.60370779894380       -3.52552474457718
H            1.30053455075075        4.44360982119892       -1.60545284785599
C            1.00869921302432        2.48477598792885       -4.33462377775671
H            1.64599678833579        0.44473614340456       -4.46560257412090
H            0.49210059756236        4.51497179626085       -3.90686463925704
H            0.64030763063642        2.51818927397790       -5.34947959793385
C            2.64867506640005        3.55913219475760        0.46403724430944
C            3.28001740022881        3.31520001288269        1.74354318964938
H            3.30132433567016        4.18326567510443       -0.15252565790606
H            1.70114482094759        4.07360988943294        0.62900775549616
C            3.80754349069247        3.08753838290362        2.79238354581786
H            4.25473569018145        2.89611255451795        3.72093031025113
Cl          -0.63414351084363        1.65673957892475        2.79301633039975
Cl          -0.61444772922611        3.39066250974020        0.21336267747208
O           -1.09736690988403        0.86970913503457       -0.39855603505006
O            0.15135026414310       -0.40382358920719        1.36433606731284
C           -1.20466660025513       -1.49338073614607       -0.64366099582861
C            0.23148558998932       -1.57477773608216       -0.62141364618197
C            2.17203478800939       -1.32011331788986        0.74148972218030
C           -3.17534161044014       -0.15997429029329       -0.25150470916894
C           -3.98222629256582       -1.26988424955563       -0.26164878732433
C           -2.02169687494069       -2.63236048166734       -0.76620679023518
C           -3.37613467939527       -2.51939088614105       -0.55725499717577
C            1.02532797067489       -2.13149540293374       -1.64595018899948
C            2.38060050858100       -2.23384841028074       -1.45503025105247
C            2.99074519603571       -1.86065517524315       -0.23346678127559
H           -3.99755279684074       -3.39977481482603       -0.55307666882741
H            3.01255398645995       -2.58204542011131       -2.25716357925905
C            4.44664793242901       -1.99198340507696       -0.10068620529204
C            2.63096441836301       -1.06688206784485        2.16183257779700
N           -1.82345475946752       -0.27636426647925       -0.41010845038239
N            0.86074123228853       -1.11388978365697        0.50831291395175
C           -3.70349847434962        1.25657994420890       -0.19280381593787
C           -5.40764617749709       -1.26067268342230        0.09654934811997
F           -3.19619960486286        2.01520828350399       -1.16951100186524
F           -3.46420211695434        1.86087187278074        0.97350808140436
F           -5.03187022062179        1.31235792215003       -0.38037684384727
F            3.01619614587383        0.18046048919681        2.41899654097904
F            3.68185885415319       -1.85559667167684        2.47060088395626
F            1.69541155109824       -1.39708246713609        3.05548545601413
C           -5.81771324332210       -0.71525119630275        1.31146464125825
C           -6.34561216103484       -1.87216633825499       -0.72988188198671
C           -8.07971549325650       -1.36557646324487        0.84717426761098
C           -7.67642312172794       -1.91480038697227       -0.35837007285559
C           -7.14786498115901       -0.76959901442660        1.68100890975660
H           -5.08985430512111       -0.25856091616297        1.96594846185491
H           -7.45718951456677       -0.34488560055650        2.62368428177923
H           -9.11896357522370       -1.40230008659252        1.13682587294271
H           -8.40043949221383       -2.37827541072014       -1.01174476056558
H           -6.03110147155162       -2.28938429215194       -1.67533723716023
C            5.07267008471414       -3.18043225354856       -0.47137214671321
C            5.22490486329484       -0.91929839344392        0.33132154605974
C            7.21318677446705       -2.23282047071148        0.04761931486066
C            6.59920350740818       -1.04307562833425        0.40282152219764
C            6.44662959959669       -3.30078306155016       -0.38856880727081
H            4.47371865764789       -4.01870781761091       -0.79650464243115
H            6.92035373382086       -4.23140147761937       -0.66342644762833
H            8.28657475487740       -2.32794396422199        0.11085337861985
H            7.19191162662030       -0.20576001618382        0.73816451135864
H            4.75454651380408        0.01433504473556        0.60265764929263
C           -1.44447772508572       -3.99772445998253       -0.97961553421190
H           -1.54840797417846       -4.29226276667023       -2.02246846109846
H           -0.39507115924969       -4.04097739636180       -0.70664192178628
H           -1.99277975162351       -4.71929590795644       -0.37883037587163
C            0.43594743194287       -2.47289644134146       -2.97899223659005
H            1.02154266100769       -1.99319710691928       -3.76066024611578
H            0.47320014588743       -3.54625771301047       -3.15587879625178
H           -0.59142120454692       -2.13177414823917       -3.05685405675060
