83
 energy: -129.131911969569 gnorm: 0.000549120084 xtb: 6.5.1 (b24c23e)
Si           0.22854919893160       -1.45392143592710       -0.30146348322386
O            1.58319082589667       -1.06287855578546        0.52727743530596
C            2.24265003767606       -1.75202186111747        1.56406490676692
C            2.79119430194547       -3.09485961119311        1.14838214430818
H            1.53486429823546       -1.89899566648595        2.39000733089403
C            3.28242879719935       -3.30787160177087       -0.13025351813685
C            2.84169481297026       -4.12779620614370        2.07570181228743
C            3.79681332186061       -4.54239353069840       -0.48509882713342
H            3.24191011803572       -2.51387617843149       -0.85803660225532
C            3.36403941711049       -5.35787956099466        1.72335511041674
H            2.45277138004429       -3.96992097052848        3.07144253557436
C            3.84058320117639       -5.56932930697784        0.44036602081640
H            4.16024666088619       -4.69952235355264       -1.48979764596351
H            3.38923357494621       -6.15735508484870        2.44919858292669
H            4.23820932863475       -6.53430716381768        0.16222646734398
C            3.40775106483198       -0.86352314308835        2.04644579662414
C            2.93839217911386        0.28652051699074        2.78461302681292
H            4.05899267168737       -1.46210179552787        2.68920026410465
H            3.97994053557039       -0.53701222447288        1.17421608654565
C            2.52465187426040        1.22265292800547        3.40525291520767
H            2.18245320772494        2.03875201811880        3.96774755318226
Cl           0.35745183443052       -2.31612365566493       -2.17068246328436
Cl          -0.17937143284610       -3.33108919595425        0.70313060082227
O           -1.26316493743357       -1.01769018790457        0.37506156466896
O            0.32712171543127        0.11917024412616       -1.18920843461065
C           -1.51058342343802        1.33967937352155        0.52446124513070
C           -0.13389991155493        1.69003306954144        0.46679940053314
C            1.89926515439496        1.79140834436190       -0.79990575058181
C           -3.36276995846006       -0.11228283448030       -0.01125429570006
C           -4.25607513457307        0.92413284946638        0.18495765624534
C           -2.44375040047737        2.33423604255059        0.89577098688360
C           -3.77932006552032        2.14332534017090        0.73140310261956
C            0.38875212771954        2.66793033009685        1.34139812020870
C            1.64144412321715        3.16648011464852        1.16143356875815
C            2.39094801286745        2.78491645491833        0.02782609832499
H           -2.07085230256669        3.28763675334317        1.23049037242237
H           -4.48476170476393        2.92431765868099        0.96552227881337
H           -0.20725553082038        2.97051809291856        2.18626909126838
H            2.06089909137696        3.88690194569255        1.84552705858237
C            3.69279142129106        3.45052549191788       -0.17910947945827
C            2.63534500395321        1.40921524144634       -2.06142694481864
N           -2.03767705950548        0.09912335798819        0.19341633530116
N            0.71569063049849        1.21303552826488       -0.50545447487249
C           -3.87536666606750       -1.49317615726125       -0.33849060127469
C           -5.69310324184011        0.83016633932523       -0.12166583487469
C           -6.13411089784746        0.54502216307698       -1.41313831487996
C           -6.63515907469636        1.09610971263851        0.86824519885481
C           -8.41614021402103        0.76005942282419       -0.70327124587694
C           -7.98692874172250        1.05399591311851        0.57988325112243
C           -7.48570082356183        0.51021370945530       -1.69901471123635
H           -5.40957964142562        0.36509736189011       -2.19391441882716
H           -7.81492080770725        0.29044149842457       -2.70379256925162
H           -9.47161951575419        0.72894828786251       -0.92813397576667
H           -8.70787229500377        1.25116718219860        1.35953071675238
H           -6.30169690263269        1.31680671172787        1.87196587723230
C            3.91109441887484        4.32078759754359       -1.24328257689297
C            4.70604964609449        3.24998207955802        0.75334511396291
C            6.13895239901408        4.74434165364954       -0.45920089422075
C            5.92395125812831        3.88947745012159        0.60887419618399
C            5.12887748418301        4.96176750253870       -1.38142538833178
H            3.11810426936224        4.50432242387719       -1.95410730473605
H            5.28838033855684        5.63600856346784       -2.20986360359618
H            7.08950664059067        5.24414932970455       -0.57045656831575
H            6.70708049914902        3.72109971628313        1.33318359628194
H            4.53157990913935        2.58061395976028        1.58388089280308
C            3.25332686650068        0.01230132759957       -2.02561358442952
C            1.72724396422978        1.56920700346046       -3.28490811889920
H            3.46099592641573        2.12115590247872       -2.15428023537298
C           -3.76738301773502       -2.42184990611574        0.87772788616720
H           -4.94156293183412       -1.37090887545282       -0.55002328418611
C           -3.22226717760706       -2.11698823627554       -1.57339493232647
H           -4.27671817828980       -3.35559670851956        0.65491889706815
H           -2.73222312727754       -2.64633852474897        1.11243737010464
H           -4.24141727320048       -1.96619990695524        1.74509764852940
H           -2.26246849625501       -2.55750057675775       -1.33320319191139
H           -3.86293100274974       -2.90731485912211       -1.95621153288019
H           -3.08087104260347       -1.37750361003131       -2.35894772637358
H            3.83015045264040       -0.12073786622903       -1.11353662984032
H            2.48487955249625       -0.74913025374749       -2.08517366588992
H            3.92027335655423       -0.10619522847208       -2.87675571390357
H            0.93437492121802        0.82739283792656       -3.27321493166535
H            1.28353094073371        2.56329231750767       -3.30773167444018
H            2.31445116402027        1.43092517015762       -4.18903696472955
