83
 energy: -129.132628633684 gnorm: 0.000459611661 xtb: 6.5.1 (b24c23e)
Si          -0.16425189449478        1.70190764349644        0.87260493267136
O            1.33060542060667        1.74998281327791        0.21760882077555
C            2.01394103474347        2.76453960515129       -0.48524684620914
C            2.65494058887340        2.14396652948833       -1.70105123855302
H            1.29718043821696        3.53422899292687       -0.79048306268853
C            3.51411626277087        1.06286603283696       -1.55574152917976
C            2.39241654991752        2.63084949826442       -2.97380285900860
C            4.10687401608435        0.47920159657399       -2.65975383703101
H            3.70802525760236        0.66981627978903       -0.57001284701719
C            2.98826049722354        2.05017799883237       -4.08015159218695
H            1.71931458636989        3.46700523342923       -3.09558562085348
C            3.84670709304756        0.97470860773077       -3.92599804719391
H            4.77730618994969       -0.35819969993699       -2.52844458742480
H            2.78014815762250        2.43771071335157       -5.06667173010687
H            4.31168154728497        0.52423717049552       -4.79069810581198
C            3.07899813321696        3.42089171408445        0.41405564631537
C            2.47821046357144        3.95830326230965        1.61596438164960
H            3.56137702620082        4.22072897958100       -0.15420654006015
H            3.83653774280810        2.68140186284497        0.68683736623224
C            1.94674104290509        4.36141847030971        2.60870342220559
H            1.47383512052781        4.72247245774630        3.47191888843550
Cl          -0.53340004476913        2.00161305823520        2.87952106389412
Cl          -0.80133977060009        3.69208463718087        0.32452087289046
O           -1.41093827695479        1.23670664644203       -0.18360136735705
O            0.12034610214070       -0.01570068690972        1.35203817284726
C           -1.11965103332747       -0.99775998241083       -0.93762906046264
C            0.27357461828174       -1.12442057725725       -0.68261050085071
C            2.06395127263087       -1.21318051387852        0.91611172826132
C           -3.30022613002815       -0.06679657951369       -0.48402828945233
C           -3.91137200938043       -1.15028588311989       -1.08811800554542
C           -1.75085602847263       -2.00215632108264       -1.70745874110680
C           -3.10490115112562       -2.08745868314226       -1.78256126855713
C            1.11606835961581       -1.75545583192975       -1.62567674372213
C            2.38911220580449       -2.10235390932999       -1.30079661079770
C            2.87277363637724       -1.88565436800225        0.01111735151202
H           -1.13592734294348       -2.75896929515822       -2.16454644884461
H           -3.58068629071323       -2.88846747922260       -2.32520690669092
H            0.74566384959431       -1.91076464219319       -2.62527981525727
H            3.04255063369839       -2.54753132971334       -2.03414414560618
C            4.21698753536471       -2.39945734208355        0.32328646781171
C            2.47083014061363       -1.07847157338603        2.36470101724818
N           -1.94544778422871        0.00535535758926       -0.45059486358616
N            0.84398570661108       -0.79181649828710        0.52450972038933
C           -4.13940280456839        1.07756736909023        0.02971145681920
C           -5.36484845289494       -1.38254742976795       -1.07162733270749
C           -6.06009976659415       -1.50131243197219        0.13110709549939
C           -6.05482931682755       -1.56038323108580       -2.26793404867502
C           -8.09555652926697       -1.93437338066467       -1.06371597300235
C           -7.41149606220118       -1.82756761317586       -2.26282557062916
C           -7.41484156148004       -1.77412691474534        0.13230294164895
H           -5.52815167718074       -1.39363400455233        1.06499424395545
H           -7.94151457438955       -1.86584454787792        1.07060984717664
H           -9.15437630213736       -2.14515776795922       -1.06044338298063
H           -7.93671297064748       -1.95329982179851       -3.19815132518606
H           -5.52454364596426       -1.46808296145222       -3.20475794810010
C            4.51208952762682       -3.72974585659524        0.02681089781201
C            5.22808093759634       -1.59217801197697        0.84022263579835
C            6.76875038402300       -3.43187687622109        0.78184383280747
C            6.49177261440722       -2.10542617930342        1.06658651616414
C            5.77383722672062       -4.24245729994475        0.26069224802872
H            3.73526912595773       -4.36624269289704       -0.37217257667363
H            5.98230262981865       -5.27786703422640        0.03478262480042
H            7.75559256310899       -3.83104956101544        0.96146160025313
H            7.26503436271992       -1.46469179452117        1.46385091027640
H            5.03173192475089       -0.55213147023903        1.05010381459765
C            2.80520576499018        0.35193283862152        2.79164334131064
C            1.40838274558921       -1.68123800745026        3.29064707276533
H            3.37858172550287       -1.68184881232778        2.47518628503333
C           -4.01378947100898        2.30810753223978       -0.87762827619110
H           -5.17699434847024        0.73854494916772       -0.04100564172200
C           -3.86345771185822        1.43276985173112        1.49222702225990
H           -4.74263713366824        3.05141110982929       -0.56571767945852
H           -3.02604594144510        2.75140638732146       -0.81065731309129
H           -4.21539264284202        2.03724430529172       -1.91236271181488
H           -2.97776235004318        2.04797518197440        1.59176614255429
H           -4.70481832734238        1.99578556661537        1.88805281963858
H           -3.73411138397129        0.53659010309609        2.09560955212482
H            3.25403263695796        0.33497380915821        3.78184753676398
H            3.51037238651173        0.80987090012476        2.10363143417159
H            1.91746515615766        0.97112908885894        2.83130297391424
H            0.50737507098860       -1.07608975721994        3.29479177571960
H            1.15829100360269       -2.69386691396810        2.97831344219893
H            1.80108471450965       -1.71892358558653        4.30345907419273
