83
 energy: -129.131763207589 gnorm: 0.000272671580 xtb: 6.5.1 (b24c23e)
Si          -0.20582890742990        1.09020770922516        0.99007602399460
O            0.12489995995961        2.19651630222778       -0.14761906387561
C            0.72232999678488        3.46873251763511       -0.10070773009877
C            1.87118915651804        3.52175467557062       -1.07580596983201
H            1.08190984512268        3.66704872350376        0.91612410098342
C            1.80583565897163        2.81644461159961       -2.26984642449065
C            2.99616426344071        4.28596236997685       -0.79699035031411
C            2.85563866246659        2.86673189750218       -3.16916138765194
H            0.93330754592925        2.21483292929273       -2.47430808056647
C            4.04252300678407        4.34116077128397       -1.70047612267660
H            3.05224942363061        4.83095225291433        0.13422328847696
C            3.97555564711722        3.63029216194825       -2.88702185433874
H            2.79993362658072        2.31008206264600       -4.09381685505780
H            4.91577280533782        4.93602588085200       -1.47570983701147
H            4.79581570452250        3.66977661385515       -3.58890138184545
C           -0.33185195659110        4.53238849935046       -0.47085457914964
C           -1.39800899176806        4.55025684583514        0.50734420676930
H            0.15462892585576        5.51030090539194       -0.51047917059759
H           -0.73936082886598        4.29801203824019       -1.45803867648184
C           -2.26065833032813        4.51563174451816        1.33527966620965
H           -3.01568649240378        4.49499171391473        2.06261172767704
Cl           0.66685820171809        2.12799528891847        2.68073498500968
Cl          -2.06622853573981        0.97502976024355        1.92242860098537
O           -0.75753018854062        0.09514577989919       -0.41923334588737
O            0.86526878887041       -0.13822179695712        1.45906170822221
C           -1.18306658189523       -1.99863152727504        0.48147804265559
C            0.20308899261477       -2.27216378337432        0.64253727384642
C            2.51775816939478       -1.59093975125053        0.72736048708208
C           -2.92172106846989       -0.72386295248367       -0.57913445887594
C           -3.87693619027667       -1.64111670207928       -0.17309521901333
C           -2.15554326108636       -2.93565894800080        0.89415375026391
C           -3.47241799927113       -2.74468804843609        0.61076457886967
C            0.64021801570704       -3.61331867365125        0.54906722746800
C            1.96015908825911       -3.92040423273756        0.45222477472605
C            2.92901514959069       -2.88310581834817        0.45880498051872
H           -1.84272266887171       -3.76972849602328        1.49994403790963
H           -4.22122434747320       -3.42850236734782        0.97818605324806
H           -0.10310388797392       -4.38840604835200        0.46736202065580
H            2.28502081388979       -4.94049102001930        0.32507506517552
C            4.32966310336494       -3.25372853602129        0.20033471551788
C            3.54431844039927       -0.51975102610468        1.00668401543126
N           -1.64107896078385       -0.88875384194090       -0.18636328236043
N            1.19298697367211       -1.31823449751258        0.84012268591451
C           -3.25280812751188        0.33644947105075       -1.60222446471085
C           -5.30781005826343       -1.51054351047579       -0.49216394553976
C           -6.01645371323089       -0.36106869437871       -0.14867177932166
C           -5.98829032908450       -2.57272616651809       -1.08223746741084
C           -8.03754570908156       -1.32854219988857       -1.00877606788155
C           -7.34257083985877       -2.47827005972031       -1.34486096942695
C           -7.37164838810395       -0.27352974919381       -0.40626997458534
H           -5.49985422833897        0.44923089481834        0.34215214262244
H           -7.91234305888840        0.61983544019333       -0.13116055252561
H           -9.09593909851615       -1.25745768684925       -1.21035261219235
H           -7.85780565088765       -3.30512948558822       -1.81136473298394
H           -5.44508590793089       -3.46786615576234       -1.35003541618466
C            4.93597104314868       -4.25485485413696        0.95476977475230
C            5.05029749459270       -2.66306247573506       -0.83721822034526
C            6.95079688867901       -4.03699212190851       -0.32920524653200
C            6.35060212074330       -3.05206941997409       -1.09685379712030
C            6.23895617732768       -4.63803277935661        0.69516744199699
H            4.38612058710026       -4.71745777729455        1.76150741287342
H            6.70089359287418       -5.40817327181605        1.29510811240997
H            7.96814697002126       -4.33662263295427       -0.53115168026020
H            6.89766410173580       -2.58669029341792       -1.90339126944364
H            4.57910752285314       -1.90660729231445       -1.44770609280521
C            3.38764180987928        0.71737946239154        0.12221695715094
C            3.56658003471196       -0.14742704497192        2.49459853374894
H            4.51549613872399       -0.96916857900042        0.78038592289009
C           -2.37647138196287        0.13352549179566       -2.84493729867617
H           -4.29200102766456        0.15473329942931       -1.89523653223364
C           -3.15215852228086        1.78097111152986       -1.11156719683652
H           -2.69663955747288        0.81887018779910       -3.62572681192884
H           -1.33477582253394        0.33337743837133       -2.61253322093528
H           -2.46857505061942       -0.88488438650050       -3.21902255524338
H           -2.11886563019322        2.06855630869233       -0.96147529576536
H           -3.59361201838010        2.44158627322380       -1.85455055306240
H           -3.68108288785566        1.91257625168015       -0.17280018496673
H            2.55106689470585        1.32617989068846        0.43995590006754
H            4.28596374013976        1.32620854079142        0.18824285457673
H            3.23891479385966        0.43853902040796       -0.91904943820883
H            2.66563428675062        0.38099971082471        2.78658826602236
H            3.66918327921525       -1.04211749410564        3.10562831335574
H            4.41853076285094        0.50036934976076        2.68389051717957
