83
 energy: -129.132042977620 gnorm: 0.000626781114 xtb: 6.5.1 (b24c23e)
Si           0.17168236876014        1.37522491299712       -0.16546589039594
O           -1.34232484402363        1.26428802827589        0.43921653348715
C           -2.11441496643840        2.05359145172474        1.32042566788694
C           -2.13772257456036        3.50231360025477        0.88490273232727
H           -3.13418553554818        1.64733705921547        1.20600665367047
C           -2.43494524742216        3.76221463443393       -0.44834687193200
C           -1.86976545400943        4.56844333549031        1.73089938159102
C           -2.44351663551562        5.05529854272762       -0.93426968045973
H           -2.64193906557033        2.93598979824215       -1.11175239380869
C           -1.88838477434890        5.86491625621119        1.24575536580650
H           -1.62216806883530        4.40427915488178        2.76708139603892
C           -2.16962117869625        6.11342822073634       -0.08539727286422
H           -2.65915337625181        5.23449594428120       -1.97705355145583
H           -1.66758010854654        6.68440259274108        1.91379503214353
H           -2.16953112103091        7.12596053203651       -0.46119327598061
C           -1.67143097020826        1.82063853854075        2.77136465299400
C           -1.76309093580487        0.41497680049499        3.09980081804886
H           -2.32132393941465        2.38667334184258        3.44273675708150
H           -0.63878773219218        2.15598781819928        2.88774041242092
C           -1.86086879479799       -0.75479222318618        3.33259932705043
H           -1.93825501129663       -1.77321212032436        3.56952060945419
Cl           0.46133434768992        2.34287964642084       -1.96361190153043
Cl           0.87988427502351        3.04145650623244        1.01844736574953
O            1.38920516057484        0.51981718858256        0.65971836794300
O           -0.16781347003064       -0.09243871481513       -1.17728475285265
C            1.17055755407468       -1.84240189844447        0.44610566593237
C           -0.24193448541915       -1.87644360516984        0.29220538993917
C           -2.22380851355549       -1.13775253279037       -0.86952064463128
C            3.30824773904281       -0.73244151762788        0.29752537198540
C            3.96319135465982       -1.95037616184218        0.31882013776384
C            1.85794452488775       -3.06180408611777        0.63988522610931
C            3.21278377905687       -3.12804053423606        0.57063358311057
C           -1.02240301893836       -2.84437896274166        0.95814025166433
C           -2.35911455634827       -2.93757444781845        0.72291477621908
C           -2.98102036588537       -2.09708142496419       -0.22864930261105
H            1.27754450763766       -3.96164183234629        0.75626436886814
H            3.72919346175466       -4.07000055072511        0.66179654012804
H           -0.54943643939806       -3.46959094091847        1.69721079640842
H           -2.96696200633211       -3.65525523148842        1.25260112669353
C           -4.42973097849462       -2.31804221106539       -0.43541807577439
C           -2.71972457910217       -0.19745579886962       -1.93789720774729
N            1.95398717681461       -0.69683731353875        0.38053383898870
N           -0.90165154273309       -1.05515610385726       -0.58759592540881
C            4.11541433850839        0.54323083616779        0.30551792553600
C            5.41270198334968       -2.09979828640920        0.11108921566314
C            6.02302893836149       -1.63953192068532       -1.05531166004551
C            6.18583791388112       -2.77202680977256        1.05425120392956
C            8.13969483005483       -2.48817550454514       -0.30849735085850
C            7.54037362234693       -2.95799281068963        0.84803465547373
C            7.37587234931240       -1.83252667153708       -1.26053893926999
H            5.42661077592457       -1.14196844529789       -1.80584386545769
H            7.83614362595773       -1.47259802474620       -2.16885218434777
H            9.19715199077103       -2.63487842380186       -0.46932923871023
H            8.13058917736639       -3.47120948154257        1.59290562740792
H            5.72192237781838       -3.13046610932771        1.96186882245170
C           -4.89406740846911       -3.09762024253308       -1.48830387884023
C           -5.33619196745022       -1.82714600839577        0.49863256889575
C           -7.14843747559200       -2.82857923838326       -0.71229419656255
C           -6.68915880856101       -2.07430338931589        0.35477773255971
C           -6.24834280723068       -3.34523522397022       -1.62862556287743
H           -4.19066615258474       -3.51606093848861       -2.19371842133793
H           -6.60081349149710       -3.94688882459583       -2.45350210093393
H           -8.20499711069752       -3.02036625505651       -0.82486740224196
H           -7.38706373485066       -1.68010358166193        1.07850462619069
H           -4.97140149782398       -1.24234992281073        1.33094657043468
C           -2.57438972209530       -0.87882794361915       -3.30427698442494
C           -4.13899629635448        0.32584247725291       -1.73501315979434
H           -2.04819707835748        0.66259511554609       -1.93496554005260
C            4.01051907351375        1.25484494327350        1.66024831398615
H            5.15777727964871        0.23078963946210        0.19513012913083
C            3.78981629507223        1.49180600705356       -0.85091367875858
H            4.72342619827425        2.07482197621425        1.68298490139072
H            3.01803323819294        1.66299000855443        1.81717357459807
H            4.24705421513954        0.56599617663233        2.46917527646783
H            2.93298322367925        2.11365722678616       -0.62377201206887
H            4.63803814285064        2.14898564620310       -1.02531880718582
H            3.58650279826016        0.94137324091917       -1.76699928919579
H           -3.22647161142452       -1.74584704001639       -3.37417294865442
H           -2.84391296887072       -0.17761767362195       -4.08952723522778
H           -1.54548392881852       -1.19213191256550       -3.46394793161343
H           -4.88659681253456       -0.42617621217790       -1.96847327265057
H           -4.28567249497292        0.65947165011683       -0.71102941748227
H           -4.29769597929746        1.17503925972065       -2.39661346558861
