83
 energy: -129.130488310828 gnorm: 0.000474364601 xtb: 6.5.1 (b24c23e)
Si          -0.41233581529722        0.97798990093717        0.72545990566041
O           -0.72237741007709        2.04836572209269       -0.45662026076333
C           -0.67069818934566        3.45737981230257       -0.45089311047696
C           -1.69973885045694        4.08652590184687        0.45385706433493
H            0.32973064083468        3.77309109790302       -0.12916715315343
C           -2.96758162849495        3.53771247792078        0.57611023663746
C           -1.39486458726639        5.25275862556541        1.14279344262252
C           -3.91220136222939        4.13544324584383        1.39120981238107
H           -3.20781010860458        2.62901997305339        0.04674141450667
C           -2.34221129824034        5.85464075776248        1.94984089180167
H           -0.40573296090521        5.67875335606744        1.05804487365476
C           -3.60281987326674        5.29608679995859        2.07780654815515
H           -4.89189374708503        3.69116156887304        1.49010182035282
H           -2.09282989075418        6.75711127407820        2.48838827983369
H           -4.33955109001000        5.76193131696883        2.71582442155022
C           -0.92108538995379        3.92817368020807       -1.89737973498387
C            0.12137268018380        3.48370635277970       -2.79540933653072
H           -0.97336647017657        5.02003900455297       -1.90589973688171
H           -1.88160062064995        3.52584139564453       -2.22906600425617
C            0.99666007103169        3.10741100632604       -3.51909610334847
H            1.75450483029254        2.78648742576433       -4.16895399837364
Cl          -2.02227116916318        0.15743082764495        1.76731000178565
Cl           0.02679872380189        2.40236400298871        2.29961499992440
O           -0.52210107127192       -0.26603199236522       -0.59600859787256
O            1.11636158016985        0.38386208506650        1.13894343971299
C           -0.03135341238968       -2.25657689426207        0.50238865401138
C            1.34376602711000       -1.92680203322278        0.62850700437139
C            3.16297964237393       -0.36734645088835        0.33379242222070
C           -2.12708765415842       -1.93575754623349       -0.62482755072228
C           -2.62641272643158       -3.11279260402639       -0.09303648321358
C           -0.54580054516334       -3.44869439416176        1.06033686805807
C           -1.82004517297456       -3.84853658039785        0.80287890210345
C            2.29775249280480       -2.96516751771927        0.73493178584460
C            3.62418887214245       -2.72002630318833        0.56836920378103
C            4.06727436632862       -1.40713637096037        0.25956274962811
H            0.06909729165093       -4.00329014576700        1.74898970283851
H           -2.22880978202117       -4.72801177378487        1.27486942369790
H            1.94950426185533       -3.97486662948051        0.87161131159153
H            4.34605557693629       -3.51983545896550        0.60977649914920
C            5.48418935845963       -1.23231360606138       -0.10243813088939
C            3.62710778998225        1.06265371857749        0.20402091886374
N           -0.90140482766449       -1.50806506336552       -0.25440630569329
N            1.85423246141194       -0.63544378928417        0.58066519165648
C           -2.85090098796914       -1.21751475771991       -1.73777664027074
C           -3.97601593071677       -3.62369252354897       -0.38364524790454
C           -5.10502373018252       -2.83992680620051       -0.15506186246782
C           -4.14184389406343       -4.93387066468112       -0.82570401868888
C           -6.52368308453167       -4.65139781951168       -0.83766124981960
C           -5.40726435341454       -5.44084609585222       -1.05728264384918
C           -6.36860292990235       -3.35242648697384       -0.38178953622068
H           -4.98307922534124       -1.83762778473396        0.22534205820636
H           -7.23691682244733       -2.73760888883257       -0.19680157328215
H           -7.51158179739384       -5.04942366760693       -1.01509787205129
H           -5.52297538216728       -6.45590548124695       -1.40797437625795
H           -3.27057067736796       -5.54833398092019       -1.00263163453678
C            6.48164073015882       -1.66464577403438        0.76713570805158
C            5.85104116428235       -0.69921692393197       -1.33682450609988
C            8.17039002015061       -1.00394829201884       -0.80360453406660
C            7.18444978579734       -0.58587993840561       -1.68239056319456
C            7.81495314479504       -1.54452613480744        0.42067006101975
H            6.20569067010958       -2.07868679593492        1.72607185583136
H            8.57950202236575       -1.87412155054393        1.10859619984738
H            9.21150549605104       -0.91203458520027       -1.07418433324473
H            7.45593679415631       -0.17312957431491       -2.64284453551020
H            5.08315197965804       -0.38948000148515       -2.03061452797332
C            2.88832341344083        1.79026998267606       -0.92038687509095
C            3.55881531812239        1.82484182783444        1.53263599272406
H            4.68544953840238        1.01455245987564       -0.07095847358358
C           -1.95156543619865       -1.15685638388149       -2.97884715656291
H           -3.71820845999226       -1.83916856287465       -1.98256385093982
C           -3.35576579124772        0.18095579318663       -1.38205648954297
H           -2.52207802420076       -0.76324467574225       -3.81628528135485
H           -1.10210650017207       -0.50312174369462       -2.80298233988123
H           -1.59126893403207       -2.15000118731264       -3.24209399777026
H           -2.52441007192525        0.87515077638948       -1.33194389157381
H           -4.04978719136566        0.51752670559157       -2.14966451026444
H           -3.86796419869041        0.17253756688034       -0.42352098654709
H            1.82382818345942        1.85763218176497       -0.73120469000450
H            3.27983030183631        2.79937725947759       -1.02032128845342
H            3.03038426237669        1.26973884954100       -1.86551061043089
H            2.53714765529653        2.01372264435386        1.84225787662876
H            4.06169805772973        1.25820403292084        2.31367561097576
H            4.06720487184886        2.77932482492336        1.41970045059441
