83
 energy: -129.127678841122 gnorm: 0.000475040184 xtb: 6.5.1 (b24c23e)
Si          -0.02731308323200        0.94793144788584        0.10185887368233
O           -0.47952316805119        2.49500623742069        0.12031812554105
C           -1.41422578059740        3.24120323688758        0.86030347953475
C           -2.41387148547456        3.86360284235848       -0.08009952506317
H           -1.92971493951990        2.58691416295813        1.57168699716607
C           -2.02332526899838        4.26156744659573       -1.35152935090566
C           -3.72793253710217        4.05922209717784        0.32333339342399
C           -2.93723377383927        4.84669457231369       -2.20957272118229
H           -1.00435670655718        4.09300178423363       -1.66477750522630
C           -4.63855948268908        4.65143151793881       -0.53336642631585
H           -4.03570687655357        3.74207185685284        1.30955499069730
C           -4.24494017634308        5.04641882184475       -1.80108378999096
H           -2.62656927912772        5.14975005628291       -3.19871823733630
H           -5.65941458391997        4.80047085144802       -0.21287348995103
H           -4.95788532464975        5.50543427836544       -2.47033977205155
C           -0.65428420573115        4.33297962948664        1.63850779604990
C            0.21644781274918        3.73391309518210        2.62609885204699
H           -1.37785940168854        4.98969044820754        2.12808650887120
H           -0.06058984423565        4.91720782388400        0.93049195908856
C            0.93156137339148        3.18514889258136        3.41287977768813
H            1.55463651016470        2.72397841088840        4.11914720327711
Cl          -1.28407678117225        0.32572546720764        1.81613609589884
Cl           1.26975189921954        1.48458053704050       -1.54135691957028
O           -0.68150185400143       -0.22321305857714       -0.94388201443484
O            1.18659679358066        0.10455968840454        0.95085016191942
C            0.17514244559848       -2.25756103750329       -0.18648984113753
C            1.54141052545458       -1.83068934080754       -0.29648210965554
C            3.36224704251366       -0.34311574624218        0.24709036010440
C           -2.19813587331190       -1.92734858602304       -0.48660763814237
C           -2.45691494499374       -3.20948452684846       -0.03160856980038
C           -0.08646559859708       -3.59759923209477        0.15627139945069
C           -1.36353817571377       -4.05555384526583        0.28107075051160
C            2.46744273011500       -2.69115502255293       -0.91480513903254
C            3.77712003008297       -2.33787708070883       -1.04366615703043
C            4.24826667801424       -1.13433669232317       -0.46457780877778
H            0.75089417092093       -4.23037136478009        0.40292355527360
H           -1.55958983190526       -5.05759921910405        0.62742605398561
H            2.09640263256094       -3.59975064771809       -1.36109931619412
H            4.46596820005888       -2.95991364551855       -1.59234619201437
C            5.66304077881404       -0.78026721704393       -0.64941469536508
C            3.86871846863113        0.74375608509388        1.16497173363985
N           -0.92366245486902       -1.48411886548864       -0.50192408877434
N            2.05641245505657       -0.68156328369300        0.26718948360606
C           -3.27750927255317       -1.11743739577340       -1.16589812968687
C           -3.81701588466753       -3.73813627202322        0.14290773453205
C           -4.75818850439739       -3.04160654424732        0.90069651817623
C           -4.16422647099062       -4.97698413659257       -0.39110157943132
C           -6.36084606524695       -4.79450725276132        0.55557286647668
C           -5.42947819060925       -5.49713712997697       -0.19057328891344
C           -6.01960348587521       -3.56821417794474        1.10322833275861
H           -4.48285264314754       -2.09760291053028        1.34614619076717
H           -6.73891411028228       -3.02209905223707        1.69527346695239
H           -7.34759842942801       -5.20327980197747        0.71377525348982
H           -5.68964226014885       -6.45463199057657       -0.61748554985760
H           -3.44273627368576       -5.52219731857105       -0.98260591420814
C            6.66409213071290       -1.70599921729554       -0.36549008265529
C            6.01884417770142        0.46210033665188       -1.17331460139654
C            8.33845365693829       -0.14913977851616       -1.09139377654388
C            7.34773552602309        0.77214267916022       -1.39144185775126
C            7.99281301017049       -1.38852269618424       -0.57925715442606
H            6.39675636912008       -2.66992110083514        0.04338551571324
H            8.76125728475839       -2.11094782289412       -0.34607441143251
H            9.37627108630595        0.09617709284415       -1.26056411372929
H            7.61219835509987        1.73539399526973       -1.80165392927153
H            5.24299042333952        1.16833243797128       -1.42689948093211
C            3.36618789246085        2.15865438976372        0.87526791363961
C            3.57018038059593        0.34971101811160        2.61852762938543
H            4.95657958561644        0.74975971071232        1.04523588784641
C           -2.93451423041578       -0.99633883232501       -2.65769511723123
H           -4.19182134100263       -1.71327414602924       -1.08764752907081
C           -3.57347924441105        0.25882302032721       -0.56756778279928
H           -3.76062613651751       -0.51615267614169       -3.17575105653837
H           -2.04136568096650       -0.39581821756382       -2.80375525465440
H           -2.77576467742385       -1.98048381171536       -3.09532938405849
H           -2.80800812560760        0.98112624162006       -0.83232064129194
H           -4.52365441129826        0.61912931260971       -0.95575076389544
H           -3.63427940204699        0.20529796479412        0.51534610256069
H            3.41904761931171        2.37749202086967       -0.18677207879325
H            2.33946441356097        2.29195689686474        1.20139663222920
H            3.98662630830668        2.87143126318942        1.41424594998384
H            2.50101991443547        0.35451049137837        2.80910811880968
H            3.96444892589443       -0.64153138052978        2.83669805188164
H            4.04681266625046        1.06451991493302        3.28468106990580
