83
 energy: -129.127219093762 gnorm: 0.000829249623 xtb: 6.5.1 (b24c23e)
Si          -0.36781724174877        0.96208364208302        1.50959959882770
O            0.33600346389593        2.33654369104443        0.99506523981187
C            0.47113551679393        2.96581053567201       -0.26546358248378
C            1.72664933836966        2.46055234072655       -0.94288639518293
H           -0.39023517022162        2.70528035999398       -0.88870761697209
C            2.96019906092364        3.07754551653430       -0.77454646150703
C            1.65762852774627        1.31475771172431       -1.72771927796970
C            4.08872270972384        2.57579289033957       -1.40174635842697
H            3.05181761187413        3.95213442434109       -0.15047932036106
C            2.78684975681753        0.80064076889274       -2.33861114640195
H            0.70695785005672        0.82118113737919       -1.85986071865601
C            4.00643150782629        1.43915979632037       -2.18805380594925
H            5.03847361612588        3.07365438391777       -1.26985619281113
H            2.71484320483192       -0.09535739447493       -2.93854618631237
H            4.88636863998814        1.05167478997626       -2.68075367214653
C            0.47734156225157        4.48414011117467       -0.02893970926466
C           -0.85512884600995        4.96543681891382        0.26662444269212
H            0.85739936589584        4.98881754189826       -0.92139432279585
H            1.12458873472364        4.70377346387632        0.82296667251488
C           -1.96497630577796        5.34007725158490        0.50898232120350
H           -2.93116912177479        5.67802487193981        0.73686775504179
Cl           0.33159881938519        1.41223449325507        3.46505851854226
Cl          -2.25775915254713        0.42905431525175        2.27315663338690
O           -0.96413062463022        0.62739010573138       -0.18466527093333
O            0.57558076433473       -0.44804281072614        1.55321394762844
C           -1.16551134552638       -1.66839964287474       -0.39148202091988
C            0.25076804460041       -1.84594093687989       -0.33190741722950
C            2.44186845711631       -1.42595450833243        0.58757436555078
C           -3.07731095126381       -0.23924302621963       -0.65670049366557
C           -3.91383136809438       -1.34206935963105       -0.73525945773854
C           -2.00137114526288       -2.78819288770144       -0.56932527489778
C           -3.35020858379514       -2.63761289559930       -0.67904146401471
C            0.83107977180949       -2.79970530348592       -1.19325832541139
C            2.17641252750745       -2.98908303652089       -1.23437375112489
C            3.01777010522556       -2.27648669758452       -0.33999431230530
H           -1.55650959126872       -3.76899878704463       -0.52720981284682
H           -4.00143976132995       -3.49575562239518       -0.72534642994851
H            0.18218792470259       -3.32070164800172       -1.87858937665446
H            2.62028183030952       -3.66751422298804       -1.94505423541473
C            4.46486003184479       -2.52246699532172       -0.43336569841469
C            3.27056292445632       -0.88604775818776        1.72870459904936
N           -1.76309213607046       -0.43098407487864       -0.41416027482850
N            1.10516835379203       -1.19532895650824        0.54189870249783
C           -3.57650995567959        1.11916892095119       -1.09295531382412
C           -5.37451389085306       -1.22328990545784       -0.85055366943540
C           -6.09194613219046       -0.45777927164825        0.06801366891951
C           -6.06801543014553       -1.92945267139355       -1.83018912204531
C           -8.15116184359819       -1.08328571513086       -0.99366094945799
C           -7.44677309440630       -1.85349278284371       -1.90384844210069
C           -7.47005044187892       -0.39004732814515       -0.00578934859302
H           -5.55869674730271        0.05966364367392        0.85093726633555
H           -8.01627632321133        0.20148120417137        0.71374667101106
H           -9.22798191739823       -1.02800146040187       -1.05050033659736
H           -7.97381866695884       -2.39846560274862       -2.67329334480410
H           -5.51954768737078       -2.52448028305857       -2.54655191550052
C            4.94468410438563       -3.83090933751000       -0.44591662705353
C            5.37270133153922       -1.47405676715686       -0.57704116011391
C            7.19147439506844       -3.03414825207053       -0.71478955609700
C            6.72338904244153       -1.73022232709255       -0.71659394736217
C            6.29739649406900       -4.08293213309011       -0.57886300768660
H            4.25201581521318       -4.65165338254879       -0.32730157852778
H            6.65571711858169       -5.10185998495063       -0.57571516959045
H            8.24748427891175       -3.23198660857321       -0.82102413017793
H            7.41467458492970       -0.90808161747692       -0.82972933536812
H            5.00842371208857       -0.45840746853755       -0.59779753752932
C            3.41620696652413        0.63573974441197        1.73020600932197
C            2.75568017034501       -1.39212801145731        3.08283784722456
H            4.26971282165877       -1.31164874451849        1.59052293996293
C           -2.83201171200199        1.50832651461357       -2.37832947131981
H           -4.62877538686466        0.97697821141787       -1.35882545406142
C           -3.52044140476600        2.24998604282290       -0.06826456395345
H           -3.24027287351423        2.43813047449548       -2.76593226229749
H           -1.77298845912540        1.65532944793356       -2.18756749059007
H           -2.94711170052024        0.73556414658936       -3.13696151174499
H           -2.50209887739516        2.54332264250864        0.16085789589557
H           -4.03727351164277        3.11584088145349       -0.47639249096807
H           -4.00703516927812        1.95494943983157        0.85605921431634
H            2.48071862021254        1.12704076958932        1.96688388345937
H            4.14235304889817        0.91872368105736        2.48803581839991
H            3.76524236824382        0.99103727626002        0.76395680729705
H            3.51368656198833       -1.20199471691443        3.83813793801960
H            1.84710835925330       -0.87944391736514        3.37976218221168
H            2.56824475413774       -2.46372414889016        3.04427118128082
