83
 energy: -129.127184435097 gnorm: 0.000769705232 xtb: 6.5.1 (b24c23e)
Si          -0.30196594924265        0.86705523557995        0.47309466252523
O           -0.70193350852603        2.25133101102807        1.20852857365788
C           -0.53125268763455        3.60372772349580        0.84938909809632
C           -1.64953022274328        4.03734834007238       -0.06246188334909
H            0.43153909491998        3.72937772710518        0.34177925908281
C           -2.95347056890760        3.65315744880012        0.22215157493829
C           -1.39496910640337        4.80792910295469       -1.18772050486492
C           -3.99050901891770        4.03335959957106       -0.61030922146846
H           -3.14511735509587        3.04038213249163        1.09050613002555
C           -2.43440900523459        5.19220678694295       -2.01670160170705
H           -0.37970442723691        5.09476607330644       -1.41913909882479
C           -3.73285965042346        4.80597058002116       -1.73009581784890
H           -5.00106732854489        3.72566163334800       -0.38397148464632
H           -2.22884131044591        5.78911854356759       -2.89322816007314
H           -4.54218171183537        5.10289481801840       -2.38128491885967
C           -0.53851845957208        4.43340594844807        2.14571350383902
C            0.58573547589940        4.08586661041569        2.98684978025874
H           -0.49623792066603        5.49419026789184        1.88510770690528
H           -1.46768095868153        4.23370248121556        2.68450966947274
C            1.52401167445965        3.76477251320193        3.65609213830082
H            2.33775831053871        3.49325039110258        4.25916247838380
Cl          -1.48266846928691       -0.10890513424719        2.00535317266148
Cl           0.69142277280176        1.81301523577278       -1.23701873899095
O           -0.87630742060210       -0.17797624451611       -0.75872406224303
O            1.06272346457592        0.04803568166855        1.06450641562324
C           -0.01276543362988       -2.26604253206809       -0.22883036742640
C            1.34530911549566       -1.81622374254531       -0.33742958099694
C            3.18489207523409       -0.35297812331011        0.21390675709420
C           -2.38575332049031       -1.93764916595969       -0.50478650430592
C           -2.63073902663257       -3.25760032719277       -0.16625925050743
C           -0.25862094510763       -3.63066034507282        0.01416003304254
C           -1.53131330532091       -4.11109435724820        0.09225883344781
C            2.25655066906187       -2.64056577850220       -1.02730584361625
C            3.56105779788941       -2.28280145063728       -1.18165267432341
C            4.04942961145526       -1.10478038668534       -0.56297123074096
H            0.58358507361710       -4.27085241186791        0.22164416771405
H           -1.71804425075030       -5.13865693965608        0.36045335479529
H            1.87267751096200       -3.52798628493123       -1.50409478643661
H            4.23240117233087       -2.87937964157973       -1.77807635775587
C            5.46093363292880       -0.74829181703566       -0.76980176758090
C            3.72523428347399        0.70174717710213        1.15008097384595
N           -1.11703308629617       -1.48234022848927       -0.47814840173447
N            1.87552290171620       -0.68721038633124        0.26101152146692
C           -3.47329974304017       -1.07807609840065       -1.10287410485310
C           -3.98693519735105       -3.81361376685251       -0.05120444828065
C           -4.93368394163716       -3.20349145426398        0.77082304328947
C           -4.32351312427664       -4.99336605558029       -0.71015662201209
C           -6.52468091654121       -4.92058522741361        0.24065370467389
C           -5.58660581624954       -5.53835484040911       -0.56932565836304
C           -6.19259045164402       -3.75541779277038        0.91324073620683
H           -4.66256648080645       -2.30965372520763        1.31166561676485
H           -6.91718572118365       -3.27735767338257        1.55551275508398
H           -7.50973265581665       -5.34868516401987        0.35151670170500
H           -5.83961733321792       -6.44868627089669       -1.09281054412832
H           -3.59568961325336       -5.47150940597920       -1.35002483268251
C            6.46055859435853       -1.69400257383850       -0.55331203893667
C            5.81745886712689        0.51343945540851       -1.24504042723582
C            8.13240672216624       -0.12002690470959       -1.24763673447357
C            7.14362649906930        0.82222415970348       -1.48088445904724
C            7.78668941194050       -1.37855184795792       -0.78454306392173
H            6.19401746749156       -2.67304170123989       -0.18174692774379
H            8.55331476558431       -2.11744436828207       -0.60284462498478
H            9.16814425324134        0.12432802984665       -1.43003509984317
H            7.40721821232503        1.80142657099791       -1.85217999033947
H            5.04534171821109        1.24082534372105       -1.44557554632960
C            3.17928230518652        2.11423539519829        0.93799932890080
C            3.51792450583083        0.25098856573521        2.60258778377799
H            4.80421424428451        0.73230131783342        0.97145726821969
C           -3.12212933001772       -0.77678493628995       -2.56674830741266
H           -4.37648254283220       -1.69567802019342       -1.10228340138791
C           -3.79553021553897        0.21339142566424       -0.35038341331692
H           -3.95274424284010       -0.25284861884501       -3.03280932578449
H           -2.23936513520941       -0.14749947261053       -2.63365536376930
H           -2.94212083459227       -1.69933636643672       -3.11602189815644
H           -3.04949011404657        0.97798644730173       -0.54341502091084
H           -4.75938795064739        0.58964426683392       -0.68601940152228
H           -3.83633612045130        0.03580976547485        0.72012367351497
H            3.11782974969471        2.35321669063593       -0.11988217059582
H            2.19205444624841        2.22265660576519        1.37503492254895
H            3.84042134778951        2.83020066298642        1.42094301690592
H            2.46324610417478        0.24015713615083        2.86097559034165
H            3.93288259224554       -0.74342587549042        2.75826277580251
H            4.02923248511342        0.94504055656410        3.26454896140709
