83
 energy: -129.131676409717 gnorm: 0.000624490177 xtb: 6.5.1 (b24c23e)
Si          -0.23980028334634        0.90252965208070        1.18803757050060
O            0.17720110985931        2.16580296117141        0.26243918186765
C            0.83018152035952        3.38029733323117        0.53854262673736
C            2.01438800211437        3.53510036764096       -0.38174362993393
H            1.16109490707013        3.38868332779561        1.58399839630180
C            1.95562333656738        3.04825677187768       -1.68062457127511
C            3.16565193947135        4.17710162466192        0.05357894107068
C            3.03715690124231        3.19367664653836       -2.53065521805370
H            1.06196857519237        2.53890391075527       -2.00781179234670
C            4.24426406347001        4.32801488150213       -0.79972179801974
H            3.21640265918440        4.55100796779585        1.06595634771574
C            4.18313005225286        3.83527205673498       -2.09244492965261
H            2.98605704117948        2.80679423401139       -3.53846070465817
H            5.13783367908803        4.82649363275503       -0.45335142963066
H            5.02808621448519        3.94913969507024       -2.75584902394832
C           -0.15999815975155        4.54309243840244        0.32132561102982
C           -1.25827941551941        4.45521491605425        1.25934018281341
H            0.37234662496371        5.48792701637872        0.45726025930579
H           -0.54277284266608        4.49496072026570       -0.70173136140772
C           -2.15013225199585        4.33124700355373        2.04675896912417
H           -2.93346859680964        4.23705273750985        2.73740505822351
Cl           0.63055459096256        1.59357338672861        3.04868731260871
Cl          -2.13361941471894        0.73556404799647        2.04141104125074
O           -0.79406385142416        0.18738195308691       -0.38238210089095
O            0.75716421308449       -0.44228682388988        1.46486661692732
C           -1.34000204947109       -2.00361860550065        0.14214251092148
C            0.02885557730635       -2.36595897280706        0.27263646085261
C            2.36634738934176       -1.81358139870643        0.51065622227259
C           -2.99085451146270       -0.48099045242735       -0.71002945968301
C           -3.99886152079150       -1.40108424891970       -0.47210059684261
C           -2.36400941758200       -2.94760597169859        0.37321999097278
C           -3.66459108621384       -2.64206247711291        0.11454759473784
C            0.41179200510196       -3.68595121912754       -0.05769187473449
C            1.71953472211310       -4.02375027143302       -0.20407526866522
C            2.72950447580442       -3.04728725434698        0.00126055229747
H           -2.10321082299684       -3.88910771823193        0.82737488503611
H           -4.45318691817875       -3.33866291862128        0.35152640164153
H           -0.36163050967438       -4.40099031056044       -0.28266124180750
H            2.00476244583985       -5.01499179757478       -0.51751577188369
C            4.11492462271896       -3.41611598003190       -0.32744120572459
C            3.43005521649827       -0.87077638612404        1.01970899923105
N           -1.72892228812830       -0.77526166447054       -0.33388282054218
N            1.05261297349804       -1.50851415786196        0.65370147652552
C           -3.24358999680324        0.74420106388290       -1.55598707162372
C           -5.41462376794796       -1.13379920793607       -0.77114555650766
C           -6.05342254594758       -0.01202015695798       -0.24616748108841
C           -6.15261089375237       -2.03807329310367       -1.53052642751506
C           -8.11803283912692       -0.68856416780181       -1.26521732152822
C           -7.49368383415429       -1.81191332548686       -1.78095366181403
C           -7.39546424129699        0.20679530087882       -0.49330414256165
H           -5.49311580081936        0.66989056243910        0.37461261900621
H           -7.88137469433630        1.07731844495724       -0.07834987692971
H           -9.16581621786254       -0.51441187794392       -1.45942273416182
H           -8.05393070695411       -2.51519567886465       -2.37952995118030
H           -5.66446832083627       -2.91144789161243       -1.93912671334458
C            4.66911867180764       -4.58504928651077        0.18847313159438
C            4.87092210195002       -2.64761617682006       -1.21265167594956
C            6.70031129756285       -4.18899810310966       -1.02535464614947
C            6.15301033137542       -3.03196251837841       -1.55572286820112
C            5.95395229081674       -4.96414938102492       -0.15391942838655
H            4.09363132451969       -5.18566878990110        0.87780946157838
H            6.37464448401344       -5.86809875938470        0.26117558687063
H            7.70291956402858       -4.48656651075030       -1.29328661842089
H            6.72685263063472       -2.42828372431570       -2.24324469031022
H            4.44035014264917       -1.75494118641166       -1.64226664992456
C            3.36178818517720        0.52548132057345        0.40088828082391
C            3.41526108051176       -0.80392778770865        2.55239106399774
H            4.38703866280325       -1.31589096374962        0.73257808551433
C           -2.35316939163114        0.68383180714435       -2.80409763740097
H           -4.28482299562079        0.67040465810354       -1.88630781877700
C           -3.07283680404656        2.08783401631807       -0.84724045916184
H           -2.61649161127138        1.49920256533498       -3.47312608904218
H           -1.30707965262363        0.78308471112625       -2.53008970785779
H           -2.49460291182797       -0.25734496674263       -3.33305610905667
H           -2.02920917599960        2.28487976902537       -0.63548406759409
H           -3.45442328784902        2.87954938777095       -1.48828684867135
H           -3.61940997804096        2.10759016999470        0.09037047119845
H            2.55398357594094        1.10603294857166        0.82733710296318
H            4.29094959664238        1.05457418976669        0.59765170185650
H            3.22031501068038        0.47178558028661       -0.67653789050946
H            2.52825090676106       -0.29910294808405        2.91952724935495
H            3.45623648616509       -1.80612948571913        2.97464199346915
H            4.28722440668299       -0.25007396204375        2.89022798518512
