83
 energy: -129.127239149088 gnorm: 0.000516024679 xtb: 6.5.1 (b24c23e)
Si          -0.37825850376196        1.27650018156689        1.23695109527488
O            0.18625782959286        2.52865002119424        0.36690097830769
C            0.19872870604501        2.86103390718314       -1.00846816299347
C            1.47500683867348        2.34137462520693       -1.63524423734917
H           -0.65144017385482        2.37759278093598       -1.50043967125506
C            2.62558124123094        3.11329499914182       -1.73695376072598
C            1.51423702192442        1.02734311001637       -2.08922698116723
C            3.77592184154379        2.58965651934512       -2.30405036623115
H            2.63685218972867        4.12812709683143       -1.37294441186271
C            2.66678232687708        0.49681307068027       -2.63898366076172
H            0.63002805786492        0.41427355733314       -2.00730795462783
C            3.80073597999837        1.28276617563407       -2.75972725539770
H            4.65929921719547        3.20623905062271       -2.38489136418024
H            2.67932010471627       -0.52901081995851       -2.97879260664388
H            4.69743122021182        0.87750577505425       -3.20568422768588
C            0.03945890069597        4.38524549517013       -1.11681129069129
C           -1.31192077632457        4.78461953431110       -0.78600254068012
H            0.27787877774526        4.70425022479164       -2.13508771525955
H            0.72315262667064        4.86124435770819       -0.41052515164335
C           -2.43489320913844        5.08677487118392       -0.50498895843916
H           -3.41407239647319        5.36103689330026       -0.24947633101105
Cl           0.32809280216981        2.25051101517695        2.98905955655527
Cl          -2.20967249157185        0.83032645778465        2.17187055212635
O           -0.96867949735795        0.46188308048044       -0.29380551938470
O            0.69876570200055        0.01132252567844        1.58924066455578
C           -0.98024956299191       -1.81434046856699        0.12832988570137
C            0.44659096489363       -1.86140061981607        0.16400663174660
C            2.61830832291320       -1.00370200480527        0.77247441440381
C           -3.00552753115728       -0.66452390508975       -0.45578802351764
C           -3.74880650981878       -1.80772313792138       -0.20743541828735
C           -1.72452794577464       -2.99745343216214        0.30358809387327
C           -3.08194758658378       -2.98691133559605        0.19780459289766
C            1.08563961943182       -2.96955548080508       -0.42922616924189
C            2.44040464226002       -3.03852243867528       -0.51654476675676
C            3.23955914055038       -2.02121540445628        0.06816177749171
H           -1.20085620159491       -3.88982960029436        0.60553604980448
H           -3.66172242936633       -3.86980020100268        0.41473614053881
H            0.46683315044820       -3.72309704670868       -0.88884201009938
H            2.92194161224987       -3.85045030057877       -1.03727211896173
C            4.69768866217598       -2.13358159241741       -0.08538747669948
C            3.43746295994700       -0.09883141261720        1.66160990431284
N           -1.67822432142495       -0.67870192754561       -0.20717407658897
N            1.26413946791472       -0.92199742102737        0.76907252909335
C           -3.61749458846659        0.48197272082067       -1.22724644540403
C           -5.21337476476733       -1.84438226639354       -0.33405260191279
C           -6.00462706296131       -0.91905232544507        0.34543250841578
C           -5.83219837099264       -2.84227408868701       -1.08270745113890
C           -7.98943469467610       -1.96729944236763       -0.50337523818428
C           -7.21104591723581       -2.89782660014820       -1.17117992217938
C           -7.38227236304765       -0.98222257863216        0.25899141533439
H           -5.52771739665346       -0.16845471927738        0.95714789433326
H           -7.98577722280848       -0.26273567844746        0.79203323773264
H           -9.06596991790676       -2.01288404046461       -0.57247000896668
H           -7.68005127938388       -3.67006886834030       -1.76319081086210
H           -5.22609589789389       -3.56376331770172       -1.61200135711843
C            5.33669259962636       -3.33781014503947        0.20453601826705
C            5.45638727858557       -1.07573561119685       -0.58538926290832
C            7.44456681410143       -2.41578406817398       -0.47590611050284
C            6.81717257358755       -1.21817839118226       -0.77836634860863
C            6.69947327153923       -3.47414619131964        0.01661547269293
H            4.76182908271726       -4.16230144795894        0.60094784910718
H            7.18249359924251       -4.41019923152296        0.25556475263376
H            8.50826517340828       -2.52434273765667       -0.62548013435643
H            7.39115524587270       -0.39100327562993       -1.16940852787166
H            4.96736389808288       -0.14797822368379       -0.83986600349199
C            3.40592324594726        1.37603703045466        1.26121774804302
C            3.05502039356142       -0.27765841867777        3.13706817617417
H            4.47083198780718       -0.44508839442098        1.55739416870097
C           -2.90835029346453        0.57630990875576       -2.58576255907685
H           -4.65354577622590        0.18876515899699       -1.42391855508180
C           -3.65920830311171        1.84219066387478       -0.53489685233493
H           -3.39508681565964        1.33210683362274       -3.19673662044236
H           -1.86566504403151        0.85503698008478       -2.46553813869810
H           -2.95713995620463       -0.37731036992750       -3.10935548166141
H           -2.66909682010426        2.26065773457323       -0.39600129309526
H           -4.23346151256872        2.53102710155028       -1.15067194610402
H           -4.13361235860272        1.76215577921114        0.43819308507907
H            2.43588672794458        1.82053228485989        1.44518449916921
H            4.13842149875552        1.91679795897666        1.85516834905653
H            3.65431850567362        1.49646058763454        0.20984579647413
H            3.82143325395537        0.18204484546504        3.75538628404269
H            2.10742044139093        0.19974441717245        3.36240827581656
H            2.99495497448997       -1.33447635002778        3.39084250037551
