83
 energy: -129.130547635742 gnorm: 0.000564534855 xtb: 6.5.1 (b24c23e)
Si          -0.12399144191817        1.11070998195731        0.60063344638480
O           -0.18568317782694        2.12272674697525       -0.66813891672133
C            0.14783651228203        3.49026495434903       -0.75851685783075
C           -0.74775334006923        4.37255204742877        0.07402783361713
H            1.18647230572049        3.62193007536992       -0.43007992543117
C           -2.10364628039249        4.10179186838410        0.18357466682610
C           -0.22431775635618        5.48876787307390        0.71238016656374
C           -2.92168063709316        4.92237240921542        0.93936800492328
H           -2.51463470730836        3.23385708354738       -0.30765623187870
C           -1.04400948913462        6.31361898934013        1.45992362841336
H            0.83255456963615        5.69908522132188        0.63718778714909
C           -2.39428583746125        6.03045499801985        1.57821638754023
H           -3.97320865389436        4.69232593499873        1.03074623442520
H           -0.62554315442039        7.17400081624815        1.96116470395177
H           -3.03186557868423        6.66878008917350        2.17225028252200
C            0.01894921565061        3.89628618550029       -2.23970431612324
C            0.95942437983689        3.18339880181415       -3.07524120488518
H            0.19466912491817        4.97203429315257       -2.32332199673973
H           -0.99949436979294        3.67795541609784       -2.57066654362530
C            1.74634764182019        2.58383347546653       -3.74813821720278
H            2.43054017955603        2.06577983156203       -4.35057493648877
Cl          -1.88653895618176        0.74451224924028        1.65414555942866
Cl           0.59750833745315        2.52791246247993        2.07569008690781
O           -0.48112681069721       -0.19002966804249       -0.61822940685459
O            1.24448295516502        0.24903116998623        1.09370618964011
C           -0.45365494370243       -2.13054993554217        0.66499653690552
C            0.95707997557234       -2.09497059780009        0.81729781243453
C            3.07941194526465       -1.01049307447690        0.42872213953473
C           -2.40459351908526       -1.47896150125218       -0.57426445565304
C           -3.15801925310555       -2.46876371687623        0.03369754042611
C           -1.22838809517602       -3.12385623658990        1.30623912334108
C           -2.55185939188152       -3.26733634810418        1.02824954385275
C            1.65829751142544       -3.29564731757229        1.07515811434340
C            3.00962775713711       -3.36171799282788        0.94486130593229
C            3.73551491909836       -2.22102655969953        0.51230828507675
H           -0.76604479509626       -3.72656821318850        2.06964205928341
H           -3.15206458707148       -3.98989029853223        1.55838318414844
H            1.09597296341471       -4.18471796550636        1.30433551500848
H            3.53807695393433       -4.28723466694532        1.10783634648532
C            5.16556080270684       -2.39997437184075        0.20694778810104
C            3.84124123901401        0.26042069458951        0.14347337325614
N           -1.12466863026786       -1.28782103711840       -0.18933878581728
N            1.74008293452356       -0.95872923296357        0.65485899164610
C           -2.93060240162617       -0.72686553222267       -1.77247142198366
C           -4.57517408368771       -2.71621380265140       -0.27895621447992
C           -5.52444616436747       -1.70166854125003       -0.17659361420150
C           -4.99393555569690       -4.00063364466255       -0.61725114784580
C           -7.26333498248307       -3.24213952852170       -0.78011415269366
C           -6.32801790529638       -4.25910485089734       -0.87266964074770
C           -6.85818637080231       -1.96546748157932       -0.42641334388937
H           -5.21114465491549       -0.71396439705762        0.12419846171509
H           -7.58618790645719       -1.17257844349642       -0.34000389256274
H           -8.30534634557160       -3.44539630860490       -0.97682429847152
H           -6.63902849952495       -5.25756668291133       -1.14284519328458
H           -4.26342694443747       -4.79319534114354       -0.69524630212081
C            6.01921054941743       -2.91574381765513        1.17829621110452
C            5.67467341533630       -2.12497494808721       -1.06074942673765
C            7.85586657422035       -2.84170293208750       -0.36302962652451
C            7.01040300086062       -2.34414496117818       -1.34114157384700
C            7.35607680735196       -3.12828546791010        0.89627411650207
H            5.63137931393625       -3.13248327018985        2.16306685973652
H            8.00986954316953       -3.51986008524840        1.66140283804943
H            8.89942419210417       -3.00940069367579       -0.58318792436427
H            7.39319210451227       -2.12878732959958       -2.32779210033304
H            5.01335053150753       -1.75339338498281       -1.82977925815482
C            3.26806152476525        0.99367318660236       -1.07064342759984
C            3.94858624793370        1.17132877423087        1.37202207290557
H            4.86202084674013       -0.04655372267559       -0.10495532790664
C           -2.01011030668366       -0.96850206438364       -2.97532026149380
H           -3.90498707104675       -1.17005237946048       -2.00209974792576
C           -3.13209851069916        0.77243023736409       -1.55164739023215
H           -2.46482035157157       -0.54337124434682       -3.86646461893465
H           -1.04604791547255       -0.49286996380176       -2.81973080100053
H           -1.86176006347154       -2.03484227451968       -3.13771921272697
H           -2.17255877420696        1.27657781610535       -1.52303582362501
H           -3.71986665666568        1.18018598899090       -2.37170764915359
H           -3.65633804979783        0.95576234838514       -0.61724578369719
H            2.25232142183778        1.32997210657022       -0.90123628030296
H            3.87989733197530        1.86437483436322       -1.29253894696266
H            3.26719803635788        0.34105191852978       -1.94167607175595
H            2.99030024091638        1.59696492026196        1.64768998972333
H            4.33844682655591        0.61049001458366        2.21895384193743
H            4.63712418744637        1.98356601438877        1.15168724108422
