83
 energy: -129.131929410056 gnorm: 0.000606509818 xtb: 6.5.1 (b24c23e)
Si           0.04432901079396        1.48256067236400       -0.50009988436039
O           -1.32001253291447        1.04597035645674        0.27011357968767
C           -2.11193749273462        1.29835861130450        1.40219409800577
C           -3.27262240667082        2.21198714400844        1.08558096891506
H           -2.50950324246806        0.30537136624788        1.67583656231806
C           -3.10053533136985        3.36163229609173        0.32697198076812
C           -4.53704798042416        1.90268565317775        1.57286556050013
C           -4.18112888603068        4.18146109222620        0.05220536521146
H           -2.12339991159301        3.61573587008679       -0.05029694835918
C           -5.61407246481468        2.72742173756939        1.30397253724416
H           -4.67674799920785        1.01243995740522        2.17195340608404
C           -5.43840768076162        3.86786524540719        0.53860027521568
H           -4.03567705094765        5.07057693042366       -0.54239290538625
H           -6.59171769546407        2.47739396038572        1.68990878749415
H           -6.27993902353003        4.50989947218581        0.32393069715639
C           -1.32025348518612        1.83684921725989        2.60788718300748
C           -0.27996922074992        0.91195738101301        2.99731349981052
H           -2.01803485686642        1.98219634228891        3.43685386477523
H           -0.87168498437179        2.79656579020918        2.34540631551488
C            0.56750243857274        0.11324341688228        3.27386245851638
H            1.33159192203740       -0.55204396915522        3.54565687517817
Cl          -0.19697587635702        2.28324289497597       -2.38676254670376
Cl           0.45167110223600        3.40549847170986        0.38009757428109
O            1.48989154903983        1.05407516318757        0.27398151886464
O            0.06855882220480       -0.13704604868123       -1.35221815141946
C            1.60413770698081       -1.31437713371564        0.58711316729354
C            0.23180579774091       -1.63199659344942        0.40061847650982
C           -1.76738263313306       -1.49115950208908       -0.94890004253952
C            3.55348815759230        0.02859934377577        0.10883150983882
C            4.38599693377760       -1.00985712461002        0.47615049094046
C            2.46459353647829       -2.30099669405615        1.12191797766381
C            3.81529861238819       -2.15969510163553        1.08186928813696
C           -0.43449951104937       -2.54970635680658        1.24103788071514
C           -1.72909799663930       -2.89571872249971        1.00319079832311
C           -2.41836251511399       -2.38102773925159       -0.11802004666226
H            2.02978456666166       -3.21347129700935        1.49428536804021
H            4.46678267866391       -2.93391856098997        1.45433754362890
H            0.07102293820038       -2.91825309103674        2.11720147502619
H           -2.25337566244227       -3.55967113323637        1.67338898721227
C           -3.82371520724597       -2.81649929533176       -0.27943932238983
C           -2.32480239368186       -0.93595175171497       -2.23601744119065
N            2.20802883991703       -0.11351999441645        0.22634640108245
N           -0.49491523044224       -1.13388900766745       -0.65170670426285
C            4.14018443915460        1.35095619667653       -0.32187433041086
C            5.84716508059641       -0.99045061433632        0.29434482174954
C            6.41221448568972       -0.85699841780421       -0.97301965848708
C            6.68618501011040       -1.17774501102604        1.38926256103720
C            8.61189836908660       -1.06248341062734       -0.03630955484690
C            8.05891886172771       -1.20657616317091        1.22482277864746
C            7.78431404839874       -0.89194416991097       -1.13433240123536
H            5.76785200560149       -0.74129280209572       -1.83240655667128
H            8.21029443102921       -0.78951118952591       -2.12148975325222
H            9.68362742433563       -1.08667688217696       -0.16444735555836
H            8.69910882215068       -1.34220650516729        2.08407442563721
H            6.25649090634010       -1.28217958747334        2.37514404428622
C           -4.10865116752739       -4.09709126768229       -0.74229202984655
C           -4.86756576079456       -1.99686246309320        0.13496201431137
C           -6.45516122294647       -3.70274864117682       -0.43945655536848
C           -6.17667341601706       -2.43742809944346        0.04862945134977
C           -5.41817863613708       -4.53374330133997       -0.82970023715214
H           -3.29775396344457       -4.74411220493186       -1.04449205006626
H           -5.62942068332771       -5.52581094147385       -1.20058490743560
H           -7.47707564083886       -4.04426625207001       -0.50806857607588
H           -6.98067642930635       -1.79069960036254        0.36725456162977
H           -4.64975138995838       -1.01620862430345        0.53177529222005
C           -2.75580874621116       -2.06366708244562       -3.17815134504939
C           -3.46703239764457        0.06096379737752       -2.02824369690883
H           -1.50740408762145       -0.39361709938551       -2.71807853215776
C            4.01451581843256        2.40061224690905        0.78952344301347
H            5.20957040279586        1.17051051427668       -0.46439567893069
C            3.57672184655455        1.86368069041185       -1.64916051681283
H            4.54885437542820        3.29888871945886        0.49147694225902
H            2.97855705347055        2.66344822030966        0.97353652183409
H            4.45271326932905        2.02593077776610        1.71252174264211
H            2.60469961470436        2.32520192979238       -1.52204157507624
H            4.24919667039838        2.61438445938174       -2.05704310393444
H            3.48406289519663        1.05463274859457       -2.37109531692783
H           -3.64851891399383       -2.56426536961934       -2.81390441060089
H           -2.97444194899924       -1.64258759612876       -4.15602051971915
H           -1.96221866413887       -2.79911920729200       -3.29111441653012
H           -4.37998244917809       -0.44403711714091       -1.72538021836183
H           -3.19899364479769        0.79839268682184       -1.27755981844806
H           -3.65544200870430        0.58376836413616       -2.96254896446897
