83
 energy: -129.130269254886 gnorm: 0.000317294575 xtb: 6.5.1 (b24c23e)
Si          -0.17684717555712        0.91752425016933        1.24427948369512
O            0.04137320740742        2.30401936563470        0.42826800420437
C           -0.21239930567153        2.72545714588242       -0.88819739888003
C           -0.94731934520574        4.04318172457775       -0.86866813963374
H           -0.81724165005393        1.97867747211901       -1.40826002959725
C           -0.79682427908608        4.92184455992469        0.19440522242364
C           -1.77627526961291        4.38694851141711       -1.92903249123193
C           -1.47106124741460        6.13035452676843        0.19680521725415
H           -0.16503660234025        4.64062047334611        1.02267646143239
C           -2.44415554311342        5.59794630809261       -1.92739803832677
H           -1.90023398823633        3.70029743434585       -2.75540503887270
C           -2.29291922355612        6.47184146422744       -0.86354140690147
H           -1.35451612146537        6.80660556420853        1.03060143919474
H           -3.08856926923427        5.85788396643649       -2.75477295244493
H           -2.81940549692602        7.41495801400112       -0.86046265939077
C            1.12617450805165        2.86610218106547       -1.64454554418323
C            1.65175254379048        1.56597286348375       -1.99817263902103
H            0.96133808928555        3.45118572668428       -2.55332752991337
H            1.83176920472260        3.39766668915668       -1.00206202265159
C            2.03561952274731        0.46787526898851       -2.28150017523668
H            2.39462904933130       -0.48314770381222       -2.54215358295896
Cl          -1.86715105443843        0.18588018769572        2.25752207075734
Cl           0.52017147195523        1.90888758471735        2.99634043704600
O           -0.70567287837762        0.07625886429970       -0.28349745113422
O            1.12189988186167       -0.14849598028079        1.46662781712873
C           -0.40848743254892       -2.19052843130892        0.09460773213316
C            1.01191593359524       -2.06157478522715        0.06873764702854
C            3.08190312431177       -0.89569745328350        0.48772075869647
C           -2.58314522185715       -1.29659182142107       -0.39454014089603
C           -3.16984872684777       -2.52473740720787       -0.13677025524206
C           -0.99745993030460       -3.45514737705174        0.29815531860028
C           -2.34816466056759       -3.61268605176748        0.23817583395636
C            1.75696949970971       -3.09978642896204       -0.53070432655380
C            3.09931647651963       -2.98954378652846       -0.71549965682321
C            3.78415595092508       -1.84067994035571       -0.24103651604044
H           -0.36010441082705       -4.27613701279311        0.58340417092700
H           -2.80655499094753       -4.56047266552151        0.47140731489578
H            1.21919145081262       -3.94778163938297       -0.92217516509460
H            3.65275501048401       -3.75157075107822       -1.24062992150613
C            5.21777178801411       -1.72459511433936       -0.54869609296937
C            3.83847101278234        0.14698574501088        1.27589312882002
N           -1.25442256103238       -1.14882208777540       -0.20187745593807
N            1.73567024046529       -1.00793473621014        0.60173461904471
C           -3.36486415527131       -0.21762096918094       -1.10882609628540
C           -4.62200055486543       -2.74521773715671       -0.21719581478584
C           -5.50138739185729       -1.94603589568237        0.51173484974217
C           -5.13288488145713       -3.79691910707573       -0.97348325843369
C           -7.36334412684738       -3.22168380728680       -0.30345078129593
C           -6.49545452690022       -4.02789963734308       -1.02086838025732
C           -6.86180079467398       -2.18467477182925        0.46670665866751
H           -5.10445950927556       -1.15442101340644        1.12884504581306
H           -7.53381085171531       -1.56176657560141        1.03807394978704
H           -8.42686811528197       -3.40438207811265       -0.34007172129792
H           -6.88149940868796       -4.84012626144420       -1.61923938138465
H           -4.45716269357632       -4.42172781175799       -1.54014169291596
C            6.08309507574647       -2.77821605223489       -0.26315139853468
C            5.72051312895397       -0.59689160558036       -1.19741647253650
C            7.91431325099384       -1.56873962105826       -1.23225993866768
C            7.05843235774930       -0.52193520997022       -1.53454650882336
C            7.42230004881119       -2.69642085237184       -0.59651489983029
H            5.70384640004935       -3.65453732965597        0.24245907814592
H            8.08477214984650       -3.51585686293632       -0.35942312018852
H            8.95982531952228       -1.50701248536405       -1.49427543209366
H            7.43456476674963        0.35572798275148       -2.03906336860285
H            5.05117469803866        0.21236850987292       -1.44986489552736
C            3.52966481886316        1.59144747035311        0.88280499227648
C            3.64998430159446       -0.06643597654109        2.78392693307784
H            4.89638265179191       -0.03273902505898        1.05852134039534
C           -2.72796435781636       -0.00255507787241       -2.48951785673837
H           -4.36319129224995       -0.63428201710314       -1.27683334712233
C           -3.55683552575160        1.10416672568116       -0.36597610438916
H           -3.30000515067490        0.73887510025640       -3.04159328695165
H           -1.70164431744114        0.34320018539524       -2.40392587003177
H           -2.73086027789836       -0.93286394377710       -3.05536782581126
H           -2.62386376201656        1.63611769771199       -0.22824932116843
H           -4.22887079159762        1.73865840325026       -0.94031701589654
H           -3.99362984653121        0.93043774406776        0.61279726318077
H            2.53206982298925        1.88061769625920        1.18950458435668
H            4.23817615638850        2.24928942317112        1.38026304894102
H            3.62502176168553        1.72172389719143       -0.19257546099052
H            2.66101896854721        0.24068108738080        3.10698476476921
H            3.80481698009326       -1.11203947000078        3.04390402972548
H            4.38236509242511        0.53340055412182        3.31763966589409
