89
 energy: -135.443017652190 gnorm: 0.000958109555 xtb: 6.5.1 (b24c23e)
Si          -0.10251724355856        1.48489127791391        0.02080794222272
O           -1.58032263481384        1.15361790124576        0.63917782295539
C           -2.33898345854382        1.87397277452222        1.58430729036087
C           -2.74346526554594        3.24673755043505        1.10701571419031
H           -1.74944631445985        1.97295874786313        2.50413355258146
C           -3.05787254961126        3.47631453147001       -0.22353698574756
C           -2.84182934017211        4.29029961955402        2.01807271908163
C           -3.44289568833641        4.73706790470097       -0.64389401830418
H           -2.97930083217805        2.67219841039604       -0.93749280036792
C           -3.23545857779025        5.54730304733355        1.59932213149651
H           -2.58999601294305        4.11841868011963        3.05461608996194
C           -3.53398752630323        5.77468794112206        0.26617586019928
H           -3.66797657740118        4.90628327558531       -1.68643343620296
H           -3.29902066317425        6.35472108695893        2.31391485133309
H           -3.83041918940318        6.76012332675921       -0.06207280126677
C           -3.61135058227640        1.05880147698036        1.88287144161346
C           -3.31065300017978       -0.16484277773246        2.59028102128507
H           -4.28338454542451        1.67204783878626        2.48934812864658
H           -4.10433524234833        0.83532587757893        0.93361208292505
C           -3.03328445727131       -1.16265809912545        3.18951389046243
H           -2.81296812865833       -2.03421048444627        3.72872959717621
Cl           0.07508628622389        2.47099414640870       -1.78073304128034
Cl           0.27675461932575        3.26480371500938        1.21178479371366
O            1.27537959702487        0.90916694398465        0.83463679199452
O           -0.18713936364630       -0.00892508737451       -0.97622469599999
C            1.43441922941910       -1.43459383637271        0.75259462281787
C            0.04757773864096       -1.70382861740680        0.57824380057170
C           -1.88904963576335       -1.62337087346451       -0.86522182850704
C            3.40022549788283       -0.02789081193071        0.49677097505700
C            4.19419396589051       -1.16585249890861        0.48942357845606
C            2.28140089334351       -2.52156841404152        1.05880844394028
C            3.62271013375450       -2.40141542264042        0.89879682530697
C           -0.57693443314774       -2.71378814729969        1.33808446047859
C           -1.85462456837486       -3.08070979989489        1.06157982360118
C           -2.52727206707202       -2.56436226480885       -0.07397606374259
H            1.84193898803964       -3.47472036141879        1.29867522877125
H            4.27441697139175       -3.25022904419903        1.03052138762133
H           -0.05359977138339       -3.12618523448322        2.18463209888283
H           -2.37271938241472       -3.79618489318087        1.68028130796426
C           -3.90701240437029       -3.06815626368986       -0.22156865076870
C           -2.32892076966300       -1.22293212050798       -2.27344248972014
N            2.04968088706446       -0.19919721535038        0.60665509519261
N           -0.70014932721060       -1.12900383823514       -0.42067199017243
C            3.95402704042971        1.39452039663822        0.55557669980755
C            5.58036213476576       -1.28930451031455        0.00400754192408
C            5.85817743253131       -1.03601314843617       -1.33785219304127
C            6.58488427252757       -1.81302224615298        0.81219825392640
C            8.12222945081182       -1.76643527863369       -1.02868998967018
C            7.85010338943766       -2.03770605034041        0.30129071485727
C            7.12116460255831       -1.27044720809761       -1.84758462201698
H            5.07198563129345       -0.66388299056793       -1.97887376742601
H            7.32431330837409       -1.06985671995653       -2.88903669626177
H            9.10895294987833       -1.94673657753677       -1.42785893756794
H            8.62546329017125       -2.43016210151567        0.94256120282665
H            6.37587849126023       -2.02275843818004        1.85156944080197
C           -4.14612327846901       -4.43160329418331       -0.36369939994584
C           -4.99029357723290       -2.20788158496172       -0.06897730856139
C           -6.51210179423367       -4.05223233853282       -0.25747762576734
C           -6.28300556411349       -2.69666459418769       -0.08870722755355
C           -5.44034354883168       -4.91803485767576       -0.39362587493298
H           -3.31027422599925       -5.10911858980959       -0.46786328392326
H           -5.61285991416945       -5.97696575610209       -0.51818054002989
H           -7.52217517634164       -4.43289438788056       -0.27569364169478
H           -7.11466400851872       -2.01835048223806        0.03216440772200
H           -4.80948421624738       -1.15473925925092        0.07815101511677
C            3.62309060857335        1.96137737495164        1.95148241137773
C            5.48125638289426        1.46975635403534        0.43889548187968
C            3.36361670642815        2.28070749304244       -0.55445799551122
H            4.04246819483550        2.96008875522735        2.03355610058977
H            2.55672890673493        2.04047810618025        2.12282288380800
H            4.06423471385286        1.33409338400561        2.72438352909818
H            5.78092500951209        2.49438694861583        0.64948906968649
H            5.97712285153449        0.82640163138695        1.15969851344373
H            5.82872534498802        1.22133439934945       -0.55804177435249
H            4.07876841466166        3.05139963626608       -0.82778904545820
H            3.13696631647901        1.69960098242834       -1.44514980235798
H            2.46143095778699        2.77937264908502       -0.22593879270381
C           -2.87546413040898        0.20710597821499       -2.31771165304164
C           -1.11652633005602       -1.35153105356402       -3.21668255143398
C           -3.40149783517972       -2.16064559546454       -2.84495289020161
H           -4.37446451372163       -1.99600004940652       -2.39594329388512
H           -3.49471864429949       -1.96390641980164       -3.91103061897905
H           -3.12640401388927       -3.20464681903414       -2.71992485472840
H           -2.09260255445514        0.92517349431170       -2.10581214193480
H           -3.26751322484891        0.41466821437144       -3.31071887167556
H           -3.68118066907843        0.32660304783896       -1.59693692463641
H           -0.33576331546673       -0.63951010104637       -2.97500836814172
H           -0.70789951994950       -2.36001989731459       -3.17009771415454
H           -1.43710260138047       -1.15706146398487       -4.23675643404610
