89
 energy: -135.362753958185 gnorm: 0.000746476122 xtb: 6.5.1 (b24c23e)
Si           0.12350153606173        0.88690935729348        0.63290704208345
O           -0.91386700184693        2.05831529541418       -0.13438935901972
C           -1.84578027638701        2.75561312951702        0.41308528111914
C           -2.57093503408621        3.73315999452775       -0.29323556269602
H           -2.10331262180612        2.55063156955032        1.44842232067871
C           -2.26671767481992        4.04896950371344       -1.63636535024737
C           -3.63081132023201        4.42299917499883        0.33498786933633
C           -2.99448989486697        5.00055328488843       -2.30973672605433
H           -1.44755306173862        3.53186019184610       -2.11130820286343
C           -4.34873666744213        5.37182253798692       -0.35317174007336
H           -3.86841878031203        4.18745032130381        1.36183320047805
C           -4.03947617487212        5.66642648639082       -1.67752536301402
H           -2.75399895657607        5.23609119740859       -3.33654444971231
H           -5.15960418672106        5.89347272387286        0.13474640238883
H           -4.60840898209156        6.41255248878076       -2.21170574365727
C            0.25910623914061        4.52534996194172        2.00520530395109
C            0.42227927426676        3.24527381578294        2.14527777173912
H           -0.68663298070213        5.00473415124447        2.20138148677179
H            1.07405633595816        5.16683012541517        1.71166263629299
C            0.56940968673189        1.96294976292635        2.16601988872328
H            0.84992501092806        1.45930882553754        3.07853402657558
Cl          -1.53978613488535       -0.05630247462985        1.84796561617405
Cl           1.73251750929357        1.51734123458148       -0.66098831804814
O           -0.28399877900559       -0.23216919873023       -0.75150802529759
O            1.21675110300775       -0.53615961688440        1.34986863604154
C            0.06893716790151       -2.39574183619019       -0.19331168535725
C            1.49871984067545       -2.08183970735465       -0.28964189058788
C            3.37205658113666       -0.88104239594750        0.54837327509981
C           -2.15725962952008       -1.65238790244969       -0.65252969425262
C           -2.63152767743208       -2.83131490051639       -0.07573055681592
C           -0.37857383458351       -3.64511539432404        0.18076011476794
C           -1.73725552229889       -3.83437425628828        0.32294857865879
C            2.28711422396441       -2.73206918450317       -1.22176296077703
C            3.57616979700975       -2.28884973313238       -1.41088851546472
C            4.11360164099442       -1.32573174814435       -0.55100779149339
H            0.33405092550967       -4.41275781375910        0.43627688521878
H           -2.12715354519968       -4.74796920241269        0.74219276913465
H            1.84908774883056       -3.49620316406920       -1.84372024790113
H            4.17635203581378       -2.66271105273681       -2.22505992268893
C            5.40062092033107       -0.73691689487084       -0.96296055866399
C            4.00094316100139       -0.28623870277467        1.80348787852195
N           -0.81720228121188       -1.43371855589641       -0.55832294424742
N            2.04432410766241       -1.16582236793131        0.54553174307469
C           -3.03097191318383       -0.73396578540266       -1.50623502692287
C           -4.04625903060896       -3.08120539114610        0.27066495216311
C           -4.63305071310887       -2.29163428118148        1.25565414975023
C           -4.74559693411927       -4.16926062705367       -0.24306216858362
C           -6.62885174058157       -3.62225577412190        1.13834621878911
C           -6.03614515354183       -4.42912960136923        0.18072051141957
C           -5.92182762704372       -2.56222432079781        1.68084731723976
H           -4.05940808185745       -1.49135506289179        1.69792899384498
H           -6.37249258037715       -1.94519538582365        2.44370683386563
H           -7.63599382248255       -3.82819493737721        1.46893283103345
H           -6.57857026116159       -5.26634363261358       -0.23324298490015
H           -4.28218450620895       -4.79644194988423       -0.99150705151543
C            6.53430585351279       -1.51206814058504       -1.18227666968256
C            5.42149083478954        0.62101493496598       -1.27656794785878
C            7.71963579695995        0.42801331464993       -1.94708252131030
C            6.58124195006280        1.19634618497038       -1.76271814367721
C            7.69242580157441       -0.92711059554173       -1.66148855840329
H            6.51413463238960       -2.56839524048664       -0.95444062443479
H            8.57457981516320       -1.53082679171519       -1.81620111738726
H            8.62488338556276        0.88167403485160       -2.32234325505156
H            6.59401812106816        2.24866976425688       -2.00343732929569
H            4.51681324810353        1.19980096498380       -1.15995386524653
C           -2.21221267906973        0.10109581966015       -2.50307357204467
C           -3.95934098725420       -1.62025506881431       -2.35873739662348
C           -3.88880284589853        0.21839435013404       -0.66144643285000
H           -2.89227801253673        0.53499731136536       -3.23340824408527
H           -1.68693574855892        0.91330461398799       -2.01559728141639
H           -1.48863417105425       -0.51310631426093       -3.03599566808844
H           -4.49958192814226       -0.99022539833742       -3.06090323985902
H           -3.38466492463084       -2.34996711553986       -2.92632723733658
H           -4.69191516709134       -2.14352065097645       -1.75498651956289
H           -4.27728393732718        1.01371810599244       -1.29341438268361
H           -4.72582392988206       -0.30702053105324       -0.21134627988318
H           -3.29639494826860        0.66674492747805        0.12938183672320
C            3.85705523352584        1.23534618031104        1.88951228669270
C            3.35389301598165       -0.94275456325541        3.03843416389379
C            5.49735096433626       -0.63000305305650        1.88214453662496
H            6.08882384235105       -0.03443480965650        1.19630023842179
H            5.84815738256181       -0.41640981984125        2.88918270972581
H            5.67427652670717       -1.68421268465118        1.68034733235653
H            2.81580287279993        1.53370279327753        1.88044791985390
H            4.31375252947399        1.58549134998920        2.81241551357259
H            4.35202019194794        1.71287741739469        1.05021928064120
H            2.30098645362908       -0.70064906381185        3.12378650785048
H            3.46239130483305       -2.02594058352742        2.99431424282183
H            3.85534805904589       -0.58485092488209        3.93383502349744
