89
 energy: -135.442866459726 gnorm: 0.000967427160 xtb: 6.5.1 (b24c23e)
Si          -0.38142097386813        1.06720292709962        0.94470056279262
O            0.10297092567023        2.18753707344233       -0.11966318334238
C            0.87292689350021        3.35633611841053       -0.01649151551004
C            2.20187122449738        3.15477832305183       -0.70190275295448
H            1.03122293148491        3.59986143195839        1.04172847093834
C            2.33060649098175        2.21844566940956       -1.71883446819583
C            3.30700520800074        3.90685516236695       -0.32548998639180
C            3.55122484304857        2.02620501082157       -2.34206000890032
H            1.47010250006093        1.63052629990834       -1.99983269893976
C            4.52494733245733        3.71868375900064       -0.95373660479880
H            3.21190802668467        4.63167294490743        0.46990482961244
C            4.65106821658957        2.77580590180955       -1.96068542302918
H            3.64374137764433        1.29011799967381       -3.12853588098060
H            5.38122125099098        4.30399643544099       -0.65243234894628
H            5.60515395532072        2.62475193325845       -2.44452384208798
C            0.09431442342280        4.50679058658102       -0.68615800480278
C           -1.15040310651513        4.74137176070735        0.01373995256187
H            0.70944403841796        5.40972594832760       -0.67195546651391
H           -0.11388271920631        4.23204120814282       -1.72373892321077
C           -2.17394682722774        4.88167337799684        0.61679401609491
H           -3.06991546662562        5.01824254219384        1.14397947853882
Cl           0.31582849522716        2.05832237873380        2.74625776450769
Cl          -2.32395099843162        0.97741603902618        1.70073129822473
O           -0.83325354667772        0.16170048466688       -0.54113835432859
O            0.59445612901956       -0.21945299181141        1.48889111575983
C           -1.23367375478275       -1.99420260715185        0.15265033035675
C            0.16624536627022       -2.22257740633857        0.31457166713392
C            2.42839737378642       -1.52634932218726        0.84554715017923
C           -3.00716381958807       -0.65937280771566       -0.80503057781602
C           -3.94268245711662       -1.57431786862442       -0.34477235154656
C           -2.16523001091312       -3.00485316884345        0.44849231111304
C           -3.49434089871818       -2.76268824391190        0.28255342316178
C            0.67396792796487       -3.47583882478988       -0.08316194325099
C            2.01136905832729       -3.64885930921711       -0.23779931210178
C            2.91790835159572       -2.61985356783122        0.14152230432386
H           -1.81779303829766       -3.91484244095416        0.90941604089887
H           -4.23079690349866       -3.47381302874098        0.62205032794614
H           -0.02270496374466       -4.23903239865392       -0.38784640472674
H            2.40791634170861       -4.55389873683525       -0.66855816308022
C            4.29080600003874       -2.78042922762924       -0.35675943376384
C            3.29041822425380       -0.68986126366538        1.79257364115675
N           -1.71585978723985       -0.84832756091024       -0.42437352245576
N            1.08078517233692       -1.31028372710688        0.81692070436700
C           -3.27361264512178        0.40475026928108       -1.86830643737654
C           -5.40046035664730       -1.36544898667187       -0.32022456380336
C           -5.90982627992147       -0.27507283197473        0.38281314035857
C           -6.28010044053656       -2.30044373559137       -0.85542935040373
C           -8.14714233063594       -1.03396711713906       -0.04001296274061
C           -7.64635332619954       -2.12840457377320       -0.72451884511994
C           -7.27569280513607       -0.11229822411069        0.51823466110491
H           -5.22156779546797        0.42323327548105        0.83514259201066
H           -7.66243589323744        0.73394361108737        1.06642318409553
H           -9.21396654501357       -0.90404314395224        0.06522398229100
H           -8.32223819022625       -2.85330798800180       -1.15414620242793
H           -5.89069702293747       -3.15465540576392       -1.39142547058093
C            5.00046782648679       -3.96472202911904       -0.17563927558750
C            4.84467611465772       -1.78013464016587       -1.15727224210914
C            6.79254484303118       -3.12881869602191       -1.53519731645649
C            6.08602304749641       -1.95388757019662       -1.73797096394062
C            6.24557531820456       -4.13216598505778       -0.75308889317171
H            4.58371501787362       -4.74715546140138        0.44246882148073
H            6.79101992124064       -5.05071387992273       -0.59365507793332
H            7.76316552849979       -3.26312922446466       -1.98841035750161
H            6.50329887311836       -1.17099575253113       -2.35417163725324
H            4.28782073774572       -0.86946714553251       -1.32528707203057
C           -4.63563558224730        0.20712769067383       -2.54784786658621
C           -3.21475904813416        1.84014674700920       -1.33496977439904
C           -2.21527658879099        0.22435835391752       -2.97551335533435
H           -4.66608895118408        0.82296118259886       -3.44430275798634
H           -4.78611070763935       -0.82745407796595       -2.84581921450552
H           -5.45646129828042        0.51387188575392       -1.90966299546676
H           -3.52485700836908        2.52584455727021       -2.12025424170205
H           -3.88134227101519        1.96148132446061       -0.48684565078053
H           -2.21207419167436        2.10947272879525       -1.02578226052326
H           -2.43098268769974        0.91158805734292       -3.78970371209943
H           -1.21666978629663        0.43859688000394       -2.61188222864832
H           -2.24194797877716       -0.79204865381373       -3.36620635478201
C            3.40997900422452        0.76874464396709        1.34190489356188
C            2.66713788609335       -0.77458992275261        3.20181896747279
C            4.71495321212738       -1.24250374828210        1.94780869649484
H            5.32701608583332       -1.05891572114540        1.07209688655561
H            5.18642654547220       -0.73445547384051        2.78619333238870
H            4.71001911688900       -2.30788563160895        2.16234521429698
H            2.45265979244445        1.27219394308239        1.34993670337803
H            4.06805170595590        1.30179971606305        2.02325518477001
H            3.83127807877402        0.82913134256280        0.34114822085411
H            1.72737065650519       -0.24182312176147        3.27228731147348
H            2.51026383451038       -1.81499567366236        3.48236593818750
H            3.34969877715734       -0.32498560714499        3.91771513247735
