89
 energy: -135.439633558205 gnorm: 0.000647849983 xtb: 6.5.1 (b24c23e)
Si          -0.48808504213029        0.77276285556812        0.92675531895704
O           -0.68849966211696        2.06165306317366       -0.04010622488857
C           -0.11223110766874        3.34486230443047       -0.01823727875847
C           -1.18389612774331        4.38698924654660        0.17433858670664
H            0.60806103214982        3.41098501146797        0.80396834477046
C           -2.36610877952564        4.30274485521466       -0.54963348429885
C           -1.00674853601375        5.43144067466763        1.06984959521786
C           -3.35860053050269        5.25019873111964       -0.37975081450417
H           -2.50746781363429        3.47969180900600       -1.23380671272691
C           -1.99757848535961        6.38394998746536        1.23328615693971
H           -0.09624495775778        5.49036043204261        1.64782167064066
C           -3.17420884735925        6.29560505579996        0.50943542570894
H           -4.27835820616265        5.17270312978923       -0.94127347251780
H           -1.85344372523191        7.19299300969473        1.93417659907631
H           -3.94910335873718        7.03633032655715        0.64256942195008
C            0.61615400048200        3.55999565130336       -1.36494468311962
C            1.37888095351767        2.38793033429944       -1.73669338887536
H            1.26744560258315        4.43325347751565       -1.28374503779110
H           -0.12885185571288        3.74544201248952       -2.14359822203989
C            1.94214748093371        1.37638346013041       -2.04114833228433
H            2.44436760852606        0.50058714748296       -2.32774033479741
Cl          -2.12238282029832       -0.12919003147040        1.86752430717011
Cl          -0.01780829149552        1.90407458664210        2.72691213542474
O           -0.73712919758618       -0.15401681909734       -0.57324916756214
O            0.96516055414314       -0.03493555267516        1.28014373770359
C           -0.19481036377763       -2.32822082268810       -0.06614575099448
C            1.19793522679818       -2.00142380478844       -0.02511289003743
C            3.10669491531267       -0.61165465046848        0.54196127011062
C           -2.43132720731405       -1.75095252506193       -0.77718957728458
C           -2.88489579410081       -2.99184944711449       -0.35602799765128
C           -0.62287005659165       -3.64271833670735        0.18653028626668
C           -1.95022515108082       -3.94123824871290        0.12493475237899
C            2.08383841166163       -2.92880942782350       -0.60501650654314
C            3.38701898579230       -2.60271087287034       -0.80393550337479
C            3.91267707548584       -1.38926475183636       -0.27655209161781
H            0.09550078365200       -4.36681955017269        0.53473596959186
H           -2.31352949376062       -4.90742576329892        0.43766258482959
H            1.67719358004120       -3.84522473270573       -1.00002855766405
H            4.04043497322081       -3.24853468401633       -1.36770315970662
C            5.26710067826198       -1.05706355815852       -0.74721516012603
C            3.65935025351964        0.37141396633397        1.57509718812333
N           -1.13937460488029       -1.43558503313657       -0.49739466459191
N            1.75995868809118       -0.86635088644958        0.53591360020252
C           -3.19567110658828       -0.80135755170626       -1.69703542340871
C           -4.29962475645144       -3.38540852292498       -0.23218600693115
C           -5.12451038446067       -2.65851293492881        0.62407381352430
C           -4.79291516809050       -4.53543012201356       -0.83874628864479
C           -6.92369175168512       -4.19120733928381        0.20799343276704
C           -6.10234689784025       -4.92840752571125       -0.62816081071589
C           -6.42925750239528       -3.06101218829504        0.83929373679163
H           -4.72321073818346       -1.79152953328325        1.12747322063603
H           -7.06197660423110       -2.49334765488833        1.50531571212014
H           -7.94474448442912       -4.50112183525546        0.37355000066720
H           -6.48201006989205       -5.81464674245571       -1.11523929904668
H           -4.15244751922554       -5.11062495923302       -1.49255648695643
C            6.30127991604108       -1.98689312993974       -0.67006534478736
C            5.49430484899410        0.14325324514608       -1.42072812665490
C            7.75398898081147       -0.51533769927435       -1.88697918792757
C            6.72756854378835        0.40984883019816       -1.98428986159109
C            7.53689678743867       -1.71270213353320       -1.22610123881646
H            6.14032069499438       -2.91983283769153       -0.14883587757047
H            8.33329202172941       -2.43793487600270       -1.14644243887450
H            8.71726325265353       -0.30514034699477       -2.32672260850024
H            6.88674608926686        1.34273471536898       -2.50489918112987
H            4.69582089559696        0.86584571876874       -1.50514832166904
C           -4.43625612524447       -1.46657506140587       -2.30870922834035
C           -3.64364877773042        0.48877715511807       -1.00191236649654
C           -2.26941571048599       -0.45494461411921       -2.88109541987394
H           -4.79632623127713       -0.84156822284713       -3.12331345103822
H           -4.20239862833498       -2.44679637836353       -2.71619977284460
H           -5.24120526792185       -1.56573277802049       -1.58933987413661
H           -4.27420620301246        1.05845252205549       -1.68129010574252
H           -4.21441919299026        0.26362173123048       -0.10578353401184
H           -2.79259947392478        1.09958428560646       -0.72581661883457
H           -2.82120604847045        0.14451004026599       -3.60079864641965
H           -1.40388598914571        0.11618895376457       -2.56282320351245
H           -1.93352869845963       -1.36397350560175       -3.37817871198246
C            3.26096102448658        1.82087289899685        1.27880087719272
C            3.13954372460391       -0.05948442883052        2.96282265099628
C            5.19057937572899        0.32444514093685        1.68628753000940
H            5.68136730199887        0.80237907266002        0.84610303183667
H            5.48151374198358        0.86582025770142        2.58389412496013
H            5.55574901410773       -0.69485715511020        1.77926169017577
H            2.19788871014166        1.96864736516868        1.41438272380892
H            3.78047559451156        2.48172545794811        1.96802734841530
H            3.52894603617929        2.09546027856380        0.26124025485445
H            2.07383685395948        0.09611460042950        3.07328862571177
H            3.36956216707543       -1.10866050831764        3.14194050663529
H            3.63392596676141        0.53575068661865        3.72548921735029
