89
 energy: -135.443212561258 gnorm: 0.000411744664 xtb: 6.5.1 (b24c23e)
Si          -0.27795856344661        0.82387047677647        1.24868983396844
O            0.08905871833367        2.24330719669983        0.55240418035435
C           -0.01590384000159        2.77863338788921       -0.74210114116717
C           -0.53286212923568        4.19440583297451       -0.66218599389044
H           -0.69819076330088        2.17299106599684       -1.34403681907600
C           -0.29819090253203        4.97027986863216        0.46384390186621
C           -1.23070113988829        4.73671549228337       -1.73378341650599
C           -0.75845893967102        6.27426733179762        0.51668112560712
H            0.22859242737713        4.53694637131322        1.29988608532243
C           -1.68438888908878        6.04216853483003       -1.68133299662302
H           -1.42018420849547        4.13145301949006       -2.60986853512189
C           -1.44841968756343        6.81361272481223       -0.55546237453681
H           -0.57737871326724        6.87040843787721        1.39875626882086
H           -2.22741227391439        6.45702932068035       -2.51825686953842
H           -1.80661211683655        7.83176904787982       -0.51373400095707
C            1.37146637770898        2.76554632646422       -1.42043373447415
C            1.74247905045497        1.42558608810296       -1.81662404794315
H            1.33828177740337        3.40866360507248       -2.30420167274965
H            2.10244410639358        3.16862986877091       -0.71581287973097
C            1.99714987110054        0.30456966628589       -2.15070921154757
H            2.23694687734245       -0.67266406096912       -2.44859757449587
Cl          -2.12524064396240        0.19716286707621        2.03980646463530
Cl           0.29097018911007        1.66624927905318        3.12487980989180
O           -0.69606807089089        0.09207174025991       -0.35474350451001
O            0.95438076642785       -0.31048465642425        1.52469071234251
C           -0.54689805779547       -2.18994815807204       -0.01476025544140
C            0.87940848063301       -2.14001044549157        0.05315308034991
C            2.98554425942052       -1.08963208592948        0.65108441356783
C           -2.64279859024719       -1.17845060112387       -0.66291389946213
C           -3.31506158755396       -2.33333049982940       -0.29943120688174
C           -1.21174861867737       -3.41436162251454        0.17349227979886
C           -2.57056087919062       -3.46311278540673        0.12067583449588
C            1.59705684897003       -3.19623819252147       -0.53984574856395
C            2.94120428564207       -3.09665411246825       -0.70437633326941
C            3.65107538890239       -1.98110200486610       -0.17941730187282
H           -0.63694872138222       -4.27467999566181        0.47496796345841
H           -3.10317867788476       -4.36056749337896        0.39218352191891
H            1.04610789963607       -4.01919883647694       -0.96462902356674
H            3.48902087148185       -3.84142848674603       -1.25949307817192
C            5.02838231998665       -1.85707605666051       -0.68694739229129
C            3.69796510650802       -0.16587216424218        1.63962683985904
N           -1.31084438422275       -1.10989909689838       -0.37899678065496
N            1.62161875928969       -1.15337749983544        0.67943389664965
C           -3.23027905309783       -0.07399646962620       -1.53923485272286
C           -4.77678525185288       -2.46325585662715       -0.17030911585350
C           -5.44537195910948       -1.62540302133829        0.72045554206917
C           -5.47810602149030       -3.48649612558846       -0.79903775368860
C           -7.49723140360686       -2.79567033501531        0.29694863017112
C           -6.83379523865419       -3.64371593773084       -0.57371704384281
C           -6.79851471797800       -1.79167135664689        0.94822640905661
H           -4.88615437115356       -0.86363033595400        1.24291576549520
H           -7.30894700963862       -1.13924480145251        1.64102688498884
H           -8.55477986656498       -2.92244946860623        0.47447189063518
H           -7.37345141069639       -4.43355468422239       -1.07552119383572
H           -4.96158883954435       -4.14865690365182       -1.47979096308771
C            5.93923451938455       -2.90230681182276       -0.56398799894764
C            5.38156943438169       -0.74019576528194       -1.44394087895790
C            7.53623289655953       -1.69812519917644       -1.88904918725646
C            6.62730500831862       -0.66290498088520       -2.03731225261550
C            7.18810316127957       -2.81719166272291       -1.15162597754010
H            5.67289849176615       -3.77544835916155        0.01473578877996
H            7.89109514005450       -3.62914208969086       -1.03696366209823
H            8.50974365333284       -1.63483326682453       -2.35148835316593
H            6.88846176320668        0.20733718278514       -2.62140698822142
H            4.66604322276165        0.05988439845853       -1.57099285470010
C           -4.56310132694995       -0.48639411281315       -2.18083297059161
C           -3.47072566457267        1.24043835136514       -0.78889966442538
C           -2.25783246601513        0.13640358913506       -2.71897814239985
H           -4.79466597357282        0.22150784859996       -2.97417526604858
H           -4.50305193564860       -1.47789893051472       -2.62211817367375
H           -5.38194025668239       -0.46526611107849       -1.47085317194985
H           -3.90829374634348        1.96903454153614       -1.46826344408615
H           -4.15706669113353        1.08022812633327        0.03754067710649
H           -2.55504075523578        1.65579715703745       -0.38803953958074
H           -2.63135858287551        0.93658610440305       -3.35360556739794
H           -1.25593884627791        0.40009333466168       -2.39794309338023
H           -2.19704958562984       -0.77316725155195       -3.31508231687995
C            3.46388724344275        1.31017983981374        1.29985400209992
C            3.20250070653918       -0.49094107741950        3.06422596572864
C            5.21694483918139       -0.38878260073164        1.68367985153458
H            5.71650189702211       -0.01723410270282        0.79629532600919
H            5.61505115017591        0.16012996293056        2.53429302703372
H            5.46422723158266       -1.43817335325160        1.81910308672040
H            2.42064051407290        1.58395690969884        1.38370728708227
H            4.02613514418418        1.92865495900978        1.99482017719667
H            3.80848209084726        1.51777791682976        0.28861559644835
H            2.18410608966412       -0.16745346438858        3.23753224560917
H            3.27542060987454       -1.56093996196311        3.25194043492255
H            3.83149018361856        0.02606648034703        3.78347641839889
