89
 energy: -135.443791948508 gnorm: 0.000214021204 xtb: 6.5.1 (b24c23e)
Si          -0.08615147956400        1.60773565294601        0.94639203212709
O            1.45413737372304        1.60178797760300        0.40495100194140
C            2.30083646815752        2.65621909742392       -0.00118562638031
C            2.74919439617734        2.40563252095049       -1.41914216354909
H            1.74490146091547        3.59859284343917        0.04180467985192
C            3.45378371859833        1.25468124445878       -1.74603619331082
C            2.44192261186983        3.31737174963648       -2.42022430348367
C            3.85137874377474        1.02155209192684       -3.05003776715419
H            3.68504417965671        0.53248991032280       -0.97863997656552
C            2.84352447578295        3.08646795561075       -3.72437051710195
H            1.88266450772757        4.20784373243400       -2.17330899300063
C            3.55027278676375        1.93894220233605       -4.04205793304652
H            4.40284233402613        0.12372242963380       -3.29011805899781
H            2.60208415919770        3.80358542367067       -4.49515485261435
H            3.86405197461212        1.75945246573725       -5.06008866135220
C            3.49508149733725        2.75454073876991        0.96357697797063
C            3.02995581235199        3.07242678510539        2.29686519113022
H            4.17069309433788        3.53495587969718        0.60371725607376
H            4.03251231528317        1.80328780689482        0.97903020187278
C            2.57930388950721        3.31090522689018        3.37895102761026
H            2.18910413995780        3.52420831008179        4.32837668005080
Cl          -0.52824316455793        1.79141218537603        2.95152573975876
Cl          -0.54777030437219        3.67824263108675        0.52158475175940
O           -1.29296392044140        1.32454968856558       -0.21532925648792
O            0.03121121044297       -0.15995383037554        1.28990413395358
C           -1.05126870453348       -0.81395256047800       -1.17052842133573
C            0.31044321505436       -1.03969512714521       -0.82570440455740
C            1.94319030872904       -1.45707893135698        0.90861992691438
C           -3.24760635622263        0.12983157598298       -0.71094548034953
C           -3.82568563723496       -0.88974809004394       -1.44560397244441
C           -1.64392611172826       -1.67263735804535       -2.12038470184569
C           -2.99394418282917       -1.72021617569394       -2.24557355988328
C            1.21422124907706       -1.54705472353477       -1.78201932096061
C            2.46891906483706       -1.90672107074119       -1.40751604261230
C            2.84885255780419       -1.90436873586838       -0.04137273182469
H           -1.02055176265943       -2.36175979751428       -2.66425840961655
H           -3.46370191924791       -2.42400325282980       -2.91420322069447
H            0.92437960305405       -1.56436508410120       -2.81912972225441
H            3.19507752407846       -2.21512365094304       -2.14323485199539
C            4.25037001077582       -2.31009876559409        0.18560722213982
C            2.08665448547713       -1.66380497688203        2.41639561210640
N           -1.88220161132151        0.15202583839181       -0.61730688582947
N            0.78003794871480       -0.91184369345860        0.45943793799159
C           -4.01130572414818        1.31353556590525       -0.12251794765526
C           -5.24510840899243       -1.30094831300048       -1.47829931471632
C           -5.79971428739647       -1.94789449241060       -0.37741189371181
C           -5.98727795038430       -1.20588120992020       -2.65099203905249
C           -7.83113672711308       -2.32169804383633       -1.59740193083375
C           -7.27734066480058       -1.70170608590674       -2.70470789674845
C           -7.08667955084741       -2.44951340096157       -0.43663042493457
H           -5.21157936203617       -2.06075500529902        0.52213014312421
H           -7.50817916676822       -2.94695302826886        0.42441157282471
H           -8.83695999741554       -2.71146164413152       -1.64132521079935
H           -7.85037727967738       -1.60826402775666       -3.61539835260537
H           -5.55399875054562       -0.72328756443649       -3.51560729087739
C            4.69267889737526       -3.55951628642122       -0.23945144605462
C            5.18209586326534       -1.40296268359762        0.68391085518792
C            6.94284532772880       -3.00230670587222        0.37764407436803
C            6.51727068777941       -1.74745269736090        0.78073685362834
C            6.02685080528163       -3.90673824415575       -0.13246747197853
H            3.97933089942795       -4.26608643073455       -0.63951368209675
H            6.35370568952668       -4.88493620721481       -0.45305943375434
H            7.98522791277117       -3.27179601801154        0.45628532982371
H            7.22799139902608       -1.03309130819075        1.16920968641857
H            4.85549030299493       -0.42154788681831        0.99517161801461
C           -5.53367943641645        1.13729803146517       -0.12146966713804
C           -3.58434362325186        1.58975592538868        1.33241979404199
C           -3.72873258157549        2.53099677738254       -1.02602090739233
H           -5.97485903659978        2.06023948176646        0.24984383231562
H           -5.92656159093188        0.96401266811072       -1.11832447646631
H           -5.84777049306807        0.32907732256649        0.53121544696640
H           -4.44691420103975        1.88124606777674        1.92512921147241
H           -3.14619304816133        0.70880103260587        1.79569313438606
H           -2.86612526124849        2.39885977882549        1.38592786967015
H           -4.28372265246008        3.38666279761042       -0.65125592393414
H           -2.67782911214122        2.79596733060649       -1.03735080362341
H           -4.05357754682412        2.32452735445412       -2.04466607065930
C            2.47758493875150       -0.36852662531608        3.13516647740026
C            0.75162214643717       -2.19065644071237        2.97867513289904
C            3.12957837557583       -2.74025155176811        2.75430053580201
H            4.14620076944428       -2.38808072993307        2.62361579188049
H            3.01342886418604       -3.01489485781180        3.80033124228439
H            2.98544126488304       -3.63519354132454        2.15366526610947
H            1.74584465835715        0.41336379460653        2.97463545197746
H            2.54411293068519       -0.55626333205823        4.20371107975131
H            3.44492895140793       -0.01185599986425        2.79211501295451
H           -0.02989011802836       -1.44099800386169        2.94015982515003
H            0.42939259372802       -3.07269877158222        2.42663553151320
H            0.89020233046484       -2.46938993117520        4.01987007107034
