89
 energy: -135.441994365422 gnorm: 0.000521527408 xtb: 6.5.1 (b24c23e)
Si           0.10484180545427        0.92646713880530        0.06674662618060
O            0.05350491835546        2.53736675635236        0.17192906294808
C           -0.82000216143998        3.44580133137429        0.79936621150477
C           -1.93122257327342        3.82796831473828       -0.14374924734804
H           -1.24289935376041        2.98850400896989        1.70031994617114
C           -1.67240724510600        3.96926448238490       -1.50062599620482
C           -3.21747136629381        4.04121743557133        0.33180987646895
C           -2.68951639467838        4.31565614670511       -2.37182698148466
H           -0.67351139827808        3.78725124471058       -1.86787079186413
C           -4.23247518815585        4.39297015004258       -0.53994895554596
H           -3.42228378991267        3.92197049827042        1.38589095022190
C           -3.97065777731940        4.53012173711269       -1.89275190592387
H           -2.48094400628942        4.41813962435721       -3.42670175749281
H           -5.23191292706125        4.55484352248475       -0.16329935238338
H           -4.76530672069557        4.80091323775375       -2.57276848439948
C            0.00360106962040        4.68413349243626        1.19755981821431
C            0.91572626104477        4.36412835964316        2.27341411197202
H           -0.67893562392938        5.47755572846296        1.51316181287070
H            0.56758113044158        5.02185655209243        0.32494893503030
C            1.64803607996316        4.04735777983741        3.16499396099657
H            2.29927884144411        3.79441215508238        3.94696615706739
Cl          -1.51551808986030        0.58524230048428        1.54625105241566
Cl           1.60442467138995        1.19348845193951       -1.46018310129914
O           -0.55968874590657       -0.22106136359590       -1.00933520965930
O            1.06824914820762       -0.01859521208148        1.09678846349050
C           -0.18891811936504       -2.26164754251396        0.02170503274365
C            1.23682271127861       -2.06349344049983        0.01194021107549
C            3.22645889811833       -0.79229000448411        0.57831508611909
C           -2.43559877839517       -1.58656709936299       -0.60647789525654
C           -2.94761818462849       -2.66462267022361        0.09716152682595
C           -0.70453362458967       -3.46937202758915        0.50907420608618
C           -2.05321671585936       -3.63480788527571        0.62079763888386
C            2.05189433084955       -3.08654199578586       -0.49017569318901
C            3.38873486048022       -2.87193891822984       -0.64610256801107
C            3.99137365097649       -1.68282973070713       -0.15927352266123
H           -0.01790516958476       -4.20209352297567        0.90159139111081
H           -2.46441884851207       -4.49740635600006        1.12007431967781
H            1.58327651650242       -3.98330379860722       -0.86247472485429
H            4.00777279485415       -3.59119478788019       -1.15782066188803
C            5.37508734762138       -1.45473108297390       -0.60607440273204
C            3.79130626681220        0.22237112541648        1.57063736100868
N           -1.09188641132943       -1.37884107426953       -0.52902380589924
N            1.87674571525300       -0.97024076122385        0.55533571347223
C           -3.21430400060408       -0.75352365603017       -1.62266825061050
C           -4.35946916739033       -2.84852353366988        0.47109835344765
C           -4.98682722085924       -1.85837482686758        1.22566097833229
C           -5.03421601039408       -4.03797544489503        0.21657452084006
C           -6.94993173233152       -3.22598449114765        1.41068596039374
C           -6.32636555268568       -4.21971701631203        0.67524752960580
C           -6.27475699247332       -2.04842607645560        1.68955732749103
H           -4.44546632958563       -0.95293610812936        1.45666442212221
H           -6.75254052220500       -1.27704874822583        2.27518566943927
H           -7.95696709291246       -3.37179511153092        1.77202277702120
H           -6.84691723533636       -5.14171158363824        0.46139739625435
H           -4.55046859242442       -4.81361538625354       -0.36035611260902
C            6.37704801056041       -2.39695314257071       -0.39819695574104
C            5.64773979199959       -0.33002371548441       -1.38375531628701
C            7.91013484307666       -1.07362814202863       -1.68370986611113
C            6.90958100801664       -0.14324588920258       -1.91583107820380
C            7.64038177409320       -2.20060320081688       -0.92586727280201
H            6.16963861476888       -3.27543001900959        0.19656992681530
H            8.41567187030694       -2.93144975256663       -0.74805622472126
H            8.89576403098604       -0.92464532737996       -2.09875239848561
H            7.11228217368521        0.72951473953786       -2.51856730232862
H            4.85568190617791        0.37798172761961       -1.57807792142464
C           -2.46983822293562       -0.86772080352943       -2.96964595273941
C           -4.62452156072003       -1.30193635045003       -1.87717812062888
C           -3.35462587076919        0.72025762824128       -1.22335489248807
H           -3.02749060384760       -0.32515336419865       -3.72873593112170
H           -1.47170258349380       -0.44602852291374       -2.92653716437276
H           -2.39910683451496       -1.91115013259798       -3.27335295679672
H           -5.02509726765274       -0.81549760950577       -2.76421020336407
H           -4.61051809306920       -2.37313381121528       -2.05982140302517
H           -5.29710974173597       -1.09168822708747       -1.05321445920934
H           -4.06928654938960        1.20854414008487       -1.88180087254774
H           -3.70812504398594        0.81083684952936       -0.20043272955452
H           -2.41296493505663        1.25093305509572       -1.30638610051653
C            3.52877012971983        1.67878291165136        1.16929751594127
C            3.15801886318587       -0.07183857431439        2.94665742507732
C            5.30526017775420        0.06119208452300        1.76814078793163
H            5.86753475326157        0.43417989260951        0.91983551538568
H            5.60077560609017        0.64026419183009        2.64046319707380
H            5.57756673744399       -0.97559418466813        1.94721389336606
H            2.48628716097891        1.95181614509242        1.28677802106970
H            4.11816865320475        2.33657237189577        1.80352344537289
H            3.81188915217370        1.84710780491796        0.13474322853659
H            2.08803982225866        0.10223158094038        2.95348215591748
H            3.35054207641974       -1.10325143394080        3.23884591995565
H            3.60653579577124        0.58360376232306        3.68868710383852
