89
 energy: -135.441389534025 gnorm: 0.000535909645 xtb: 6.5.1 (b24c23e)
Si          -0.23647426864752        0.73620228439469        0.57034923518288
O           -0.60240101359352        2.11552412687294        1.33046743213650
C           -0.21476788002058        3.45556668330227        1.12319136078988
C           -1.07985481527063        4.08309198980683        0.06148283027640
H            0.83593111202493        3.48748437816252        0.81480690728879
C           -2.45427753467542        3.88548634993833        0.09352502015135
C           -0.52372381890632        4.84759932689423       -0.95378566536017
C           -3.26255649658823        4.44403504172716       -0.87982877583389
H           -2.88187847353663        3.27791108320721        0.87729700237261
C           -1.33449083167643        5.41052455594768       -1.92398476728700
H            0.54629390140258        4.99018469991721       -0.98931654060839
C           -2.70398482680905        5.20997050258348       -1.88913543149754
H           -4.33015613266642        4.28122705010541       -0.84968568526191
H           -0.89444711137976        6.00197990208914       -2.71352822057173
H           -3.33460482280682        5.64645080938041       -2.65008003118446
C           -0.37823190511530        4.19654073652244        2.46195630945158
C            0.52420562615573        3.66725399589781        3.46077028032330
H           -0.17794553731156        5.25949701160663        2.30319342025132
H           -1.40777960867233        4.07394337876431        2.80618380644832
C            1.27895198085906        3.19836032912297        4.26190880473849
H            1.92849495120395        2.79695302690853        4.98064031669541
Cl          -1.68232014482988       -0.19413127933309        1.87732346282916
Cl           1.14265130857699        1.66781245681297       -0.88221528178337
O           -0.80683948141766       -0.07485225061760       -0.82367725092415
O            0.92033541757193       -0.34164946641324        1.19110904458185
C           -0.19706433303246       -2.28019839771162       -0.47760704799400
C            1.20189929566907       -1.94280838463108       -0.46957217639327
C            3.10333190872642       -0.70706062609327        0.39807001104398
C           -2.52665674035368       -1.68225764232099       -0.79920554659330
C           -2.89705872358771       -2.96623009205896       -0.43525674332679
C           -0.57237076397125       -3.62449813003810       -0.36038628573558
C           -1.89195553670972       -3.95193819502535       -0.25911221531452
C            2.07487421735328       -2.68628540414529       -1.27582940040749
C            3.37786962458698       -2.30626725076901       -1.39578414854065
C            3.90255303739789       -1.26107786840002       -0.59018829392733
H            0.19881391444641       -4.36625063705335       -0.22825278541620
H           -2.19484525219983       -4.96086545888552       -0.02938179652224
H            1.66538059839670       -3.47597593469767       -1.88495637900447
H            4.02843467235181       -2.77923299572422       -2.11371781815822
C            5.23712409315896       -0.77982428984221       -0.98135149613941
C            3.62928688850094        0.00981269161747        1.64040874940795
N           -1.20372352663080       -1.37194557606074       -0.71253095489278
N            1.77312549970310       -0.99523355191734        0.35394237096622
C           -3.43530725824597       -0.67148083701288       -1.49459711636134
C           -4.26092077025066       -3.38986028359117       -0.07761059714018
C           -4.90258776042676       -2.73933228170486        0.97523848112583
C           -4.86159678704418       -4.50079328363555       -0.65986404867751
C           -6.74334023004385       -4.27090378014498        0.80992211111595
C           -6.10210805647196       -4.93101138455367       -0.22463337954128
C           -6.13763042674989       -3.17975382976317        1.41256397392939
H           -4.40951165386128       -1.90524201838838        1.45232427756533
H           -6.62829033141861       -2.67288357150496        2.23018546423474
H           -7.70986606314458       -4.61099329349998        1.15089681300778
H           -6.56789530578841       -5.78651619998274       -0.69154133608762
H           -4.36293552333111       -5.01526113925548       -1.46934473164922
C            6.32177356478950       -1.64270273606191       -1.10048199105418
C            5.37736651085206        0.54802529925045       -1.38300505495376
C            7.67124144327114        0.14490643849757       -1.96006667423039
C            6.58839367106741        1.00459585668603       -1.86737809090652
C            7.53439755867515       -1.17859978320419       -1.57690832885321
H            6.21859378683253       -2.67534007466296       -0.79815657977031
H            8.37451974661186       -1.85317715068695       -1.65335093093434
H            8.61733020240440        0.50399344948044       -2.33666011756166
H            6.68709531495149        2.03396519391202       -2.17861989841709
H            4.52301301692608        1.20630803544261       -1.32727416533075
C           -2.77026826364550       -0.31909026413596       -2.84182262148097
C           -4.80887970430288       -1.25835906446165       -1.84459733841045
C           -3.66988868973214        0.60443865578058       -0.67725843970011
H           -3.41415585970470        0.36622245624432       -3.38731452266112
H           -1.80836558815220        0.16434367312823       -2.71104240435057
H           -2.63494259490506       -1.21733999794826       -3.44247979731395
H           -5.30762461269690       -0.57691740317992       -2.53090432673306
H           -4.71855868370915       -2.22248468913472       -2.33758481079103
H           -5.43813536558772       -1.36630559600951       -0.96828930808415
H           -4.48229926372118        1.17219554954929       -1.12510455547399
H           -3.93305194397217        0.35764077096758        0.34701549451321
H           -2.78895586653888        1.23657617523285       -0.66423260998665
C            3.18079069271874        1.47331633634125        1.73632246875351
C            3.12703578308032       -0.78057932796732        2.86697939525116
C            5.16120696435417       -0.01259410845351        1.72907606380397
H            5.61937911299362        0.67160134158406        1.02370555178659
H            5.45041457581820        0.30125980008797        2.73001440458192
H            5.55784216694184       -1.01086281370306        1.56445681829107
H            2.13513998304736        1.55630968509307        2.01138653289277
H            3.76558488136777        1.98040069907240        2.50008046579788
H            3.33256228038621        1.98178296339863        0.78856323971511
H            2.04621698469084       -0.76354584945308        2.95293750111613
H            3.46130795423699       -1.81560756877396        2.81177541189209
H            3.53989093972876       -0.33439702871786        3.76804768083465
