89
 energy: -135.446484477728 gnorm: 0.000782929122 xtb: 6.5.1 (b24c23e)
Si          -0.11010336063187        0.96945006442339        0.69803301294126
O           -0.18521073572408        2.15391395176552       -0.41181105835957
C            0.13691520235803        3.52231103307675       -0.30744293907538
C           -0.75076563627786        4.26100091058006        0.66150969696339
H            1.18210658993055        3.61240349224608        0.01342738684444
C           -2.10445308490647        3.96671308924094        0.73710762527624
C           -0.22846776804533        5.26885728430456        1.46012233408150
C           -2.92153174355413        4.65620575772200        1.61466922882267
H           -2.51307042577454        3.18013753755437        0.12137427341866
C           -1.04758286402098        5.96382759410469        2.33051462011808
H            0.82667934761178        5.49494665173860        1.41129180778600
C           -2.39540798243626        5.65734761125986        2.41185555238683
H           -3.97110269383511        4.40814865377097        1.67666610594645
H           -0.63058691247864        6.73996683866075        2.95530517215209
H           -3.03247748607925        6.19385035369148        3.09978899832690
C           -0.03403873907941        4.14232640957717       -1.70845126205233
C            0.84431643103194        3.53553025550374       -2.68369653788262
H            0.17126195579109        5.21402300994314       -1.64234752248949
H           -1.07130140603931        4.00043052033852       -2.02283896757063
C            1.56952757417393        3.02266229422593       -3.48540063460093
H            2.20025205556197        2.57725506909066       -4.19514371240749
Cl          -1.91338551059223        0.45876044163566        1.61124399268495
Cl           0.57635415461136        2.14219437556459        2.37856574926461
O           -0.42261998661544       -0.14823766314555       -0.72227880422815
O            1.25702702264367        0.05858084001215        1.05801559576235
C           -0.46223038566827       -2.23028925792891        0.28376104384229
C            0.94435381338563       -2.22756870632212        0.50335544356706
C            3.10981035887491       -1.13075513666917        0.28249176416333
C           -2.37493003617704       -1.38448863560645       -0.92600466399601
C           -3.18924442502755       -2.32999430752580       -0.32445679332377
C           -1.27808081704296       -3.24616208206938        0.82320071798601
C           -2.61593025087193       -3.25101827405404        0.57864290960025
C            1.61538822218485       -3.43636009807261        0.76674822642480
C            2.97364073052979       -3.47097130415083        0.85059327407749
C            3.74754371037414       -2.31517148945799        0.55287032023215
H           -0.84924083725484       -3.95842624954628        1.50674099088277
H           -3.26135184808138       -3.96467922552571        1.06661725186223
H            1.04681721411319       -4.34509824166097        0.86872066042696
H            3.48984735549095       -4.38840415319203        1.08556113326912
C            5.20809746973264       -2.53831948166881        0.63283388091690
C            3.76639657286603        0.13986442803319       -0.24509073858069
N           -1.08924727469314       -1.28750433920252       -0.48967001773314
N            1.73268060177573       -1.08942244030307        0.42412756000873
C           -2.76563369537455       -0.52604173862842       -2.12609849796512
C           -4.66232153690766       -2.38773481904396       -0.41046609862606
C           -5.40766283974183       -1.35031949652930        0.14420522901826
C           -5.31754591551866       -3.51232516174902       -0.89838879892765
C           -7.43689990620733       -2.53317165958986       -0.34670591228677
C           -6.69932264828735       -3.57797758399441       -0.87709257786262
C           -6.78796243407638       -1.42401518991835        0.17133181116778
H           -4.89140565614524       -0.50117549311771        0.56634771690141
H           -7.35958987923521       -0.61562528199426        0.60249251587095
H           -8.51517346036741       -2.58707625228526       -0.32832361755524
H           -7.20142837699993       -4.44939522662443       -1.27091192987987
H           -4.74116836639115       -4.32905566476708       -1.30954598675331
C            5.92900034526235       -2.02526264755401        1.70645124043483
C            5.84784504567953       -3.37189393636840       -0.27758901245652
C            7.91236856944343       -3.12075720419347        0.91762831177549
C            7.19568691394879       -3.65122409823034       -0.14193960191156
C            7.27479535399718       -2.31303354785387        1.84452209566106
H            5.42674568919846       -1.40367083386667        2.43298928206661
H            7.82689981990927       -1.90770105994451        2.67957031345434
H            8.96377936421153       -3.34189804941977        1.02459020334317
H            7.68695155328084       -4.28888834866461       -0.86221261115297
H            5.28584810963976       -3.78918397699940       -1.10118933881809
C           -4.02853130059899       -1.05200280049757       -2.82214010493052
C           -3.00197164979736        0.93731877253394       -1.73610191592458
C           -1.63599062902542       -0.60769370360404       -3.17161647776815
H           -4.11967254536578       -0.56068136080667       -3.78861588135094
H           -3.96962721229879       -2.12360866832581       -2.99487095715899
H           -4.92745135151245       -0.83402171012398       -2.25680276102056
H           -3.40805871499805        1.47559034180211       -2.58993071858655
H           -3.70962360203663        1.00108127683739       -0.91348545186049
H           -2.06978952746980        1.40525476174336       -1.44266186183855
H           -1.94337322713588       -0.07867828891202       -4.07003092016469
H           -0.72155943055527       -0.14808716355457       -2.81314833384554
H           -1.43699468827772       -1.64580521500825       -3.43425913933258
C            2.89398598793107        0.69656256732520       -1.38240128410359
C            3.94859526643207        1.18502998104264        0.86440629501472
C            5.14289107737640       -0.12802523760380       -0.87099175259212
H            5.10719508743078       -0.96520379278696       -1.56370673259069
H            5.44443647120932        0.75745050913197       -1.42712061226982
H            5.90459737691328       -0.32104991315692       -0.12368542233502
H            1.89106504732602        0.95432239927597       -1.07002901874734
H            3.34992020478271        1.60058582881049       -1.77812112160935
H            2.82160237242132       -0.03446324227450       -2.18643448925430
H            3.00196856861804        1.47086472057013        1.30879643398608
H            4.59113770484133        0.79141617564519        1.64862472699597
H            4.41893249230904        2.07315965128679        0.44876608809750
