89
 energy: -135.438740891894 gnorm: 0.000702520452 xtb: 6.5.1 (b24c23e)
Si          -0.44147852845127        0.61830851023020        1.56378009974477
O            0.29694609164140        2.05538667224216        1.39759909054026
C            0.48055504889944        2.95102307833624        0.32119463750577
C            1.81711739440566        2.69822231361856       -0.33290243810075
H           -0.31496627576331        2.80516204606582       -0.41381274372807
C            2.99590764760703        2.89395290624184        0.37662170323816
C            1.88908363681487        2.26062395119749       -1.64871035104671
C            4.22215313814412        2.68681316332541       -0.23000751695498
H            2.95315118474861        3.19927604340787        1.41057485382470
C            3.11478030783760        2.04582110968345       -2.25437163747490
H            0.98001540321603        2.09205118059797       -2.20768439538035
C            4.28527719428486        2.27003207610398       -1.54955490744385
H            5.13214200672104        2.85205158208085        0.32875681825967
H            3.15697713319010        1.70621168000025       -3.27914110187119
H            5.24216706353418        2.11853390725212       -2.02768719116530
C            0.39968077688621        4.38616842706935        0.87332128034088
C           -0.94966855375618        4.71775675807918        1.27542759318353
H            0.73899197514890        5.08272325332462        0.10137767701267
H            1.05515081480725        4.46665745282268        1.74281277064924
C           -2.07377319425377        4.96437377144378        1.60191572600991
H           -3.05432990382266        5.18507707902313        1.90066593517702
Cl           0.11945050800097        0.63661835291473        3.61982921309350
Cl          -2.43019456755357        0.16634652248591        2.07185385355015
O           -0.87641567758375        0.58569495630994       -0.20861946769159
O            0.47849913741666       -0.80473181412055        1.43373548586806
C           -1.18050099659389       -1.64493133666484       -0.72360651830687
C            0.22491513673655       -1.89809069321064       -0.63502805411901
C            2.39590002702023       -1.70484337597998        0.43145521394674
C           -3.01709884289476       -0.09100246816745       -0.91728518542285
C           -3.90382955777310       -1.15312104803643       -0.99352009515659
C           -2.05649431716859       -2.70170933884996       -1.01982451257191
C           -3.39826201476038       -2.47482267714015       -1.05899791727483
C            0.79857663585253       -2.73691398503710       -1.60660852472450
C            2.14789993090218       -2.87835986211217       -1.67345484100514
C            2.98117542826575       -2.30255978002698       -0.67491880130367
H           -1.65726891697061       -3.70042165879419       -1.08897720622066
H           -4.09659371472895       -3.29199853031910       -1.14357950651597
H            0.15603910068848       -3.16463273591286       -2.35871972483398
H            2.61110291866611       -3.41821525633534       -2.48345594243739
C            4.41835520464681       -2.34310830893477       -0.99345945851048
C            3.11376229426358       -1.50289688296936        1.76649695218924
N           -1.71094944252338       -0.38205734363428       -0.65124094885210
N            1.05849678454609       -1.42561590676555        0.36254978786225
C           -3.35335762062992        1.33866391508749       -1.33502611794906
C           -5.36740913743997       -1.04334721438362       -0.87486919187979
C           -5.90049056330143       -0.46949058662407        0.27822464119075
C           -6.22376545205640       -1.61977454583135       -1.80697752290828
C           -8.11783969044177       -0.99857433977534       -0.47219921141960
C           -7.59246840026031       -1.58685470551168       -1.61036048728415
C           -7.26856071265151       -0.44713114297331        0.47387897237830
H           -5.22808809252408       -0.06614863649728        1.02065607808105
H           -7.67396666484718       -0.00276473020400        1.37070824606547
H           -9.18650726723878       -0.97748233084855       -0.31888410873471
H           -8.25128469664868       -2.02547430962121       -2.34549623471867
H           -5.81529768226193       -2.07738342809448       -2.69715922185519
C            5.05864901737688       -3.54108172290883       -1.29669322570753
C            5.11847966725432       -1.14717697469767       -1.14383615049959
C            7.07307620774249       -2.35439652746232       -1.83620349713837
C            6.43618898467280       -1.15540817918304       -1.55980346426809
C            6.38013554691841       -3.54590980978188       -1.70417033685212
H            4.52258633314797       -4.47333648298056       -1.18962740269443
H            6.87064924189778       -4.48311405671682       -1.92225081779795
H            8.10368984307199       -2.35936108696223       -2.15786824275541
H            6.96913067870110       -0.22247814761407       -1.67131887267849
H            4.61477941589640       -0.21305961088687       -0.94264596786028
C           -4.70989842110178        1.43816564416391       -2.04667299547022
C           -3.36929236858793        2.33545059783572       -0.17320153838418
C           -2.30572165587786        1.75382542102673       -2.38767764870670
H           -4.77057855679542        2.41081137152485       -2.53091701095899
H           -4.81660085526524        0.67420399017057       -2.81243759371436
H           -5.54009153177136        1.36227985862820       -1.35391243744536
H           -3.65012933547336        3.31781236429791       -0.54661152439596
H           -4.09060498223178        2.02656237268253        0.57739318806544
H           -2.40181284497347        2.42313579506556        0.30500911255959
H           -2.49807229401085        2.77575685325282       -2.70543058067384
H           -1.29621319974108        1.70785339038463       -1.99642451750213
H           -2.37046073107313        1.10229886365950       -3.25835724794166
C            3.31083570446371       -0.01824222973552        2.08752896849647
C            2.29647049364173       -2.19797667833564        2.87653266035186
C            4.49646368649305       -2.17083664703552        1.80165381689414
H            5.22493768074896       -1.64974016887068        1.19118048581296
H            4.85816351238504       -2.14870381948291        2.82719389542977
H            4.44547486978014       -3.20978045421318        1.48655609388127
H            2.36991050288603        0.51380682528697        2.14259207033322
H            3.80024853546243        0.07455481040081        3.05343155071556
H            3.93715295467446        0.44998284123537        1.33148006071561
H            1.41049663288063       -1.63878713641610        3.15068505055955
H            2.00628750821567       -3.19949838499376        2.56314960235726
H            2.91189431860112       -2.28486261690415        3.76744297242225
