89
 energy: -135.442739153835 gnorm: 0.000376690681 xtb: 6.5.1 (b24c23e)
Si          -0.43786867872120        0.74102169035472        1.23651777110541
O            0.10187547018293        2.11140521016209        0.56098666819798
C            0.95300935629300        3.13967673530319        0.99224739764353
C            2.27702465799924        3.04286548009383        0.27437755983510
H            1.10763800344309        3.05965939077439        2.07580369825489
C            2.35866845108572        2.41576295472190       -0.96158265129774
C            3.42404005403387        3.58619378867347        0.83832365477941
C            3.57225790036797        2.32213491519970       -1.62016522798444
H            1.46558474260517        1.98754179306918       -1.39059065219551
C            4.63578279917657        3.49635249545010        0.17712210706876
H            3.36625573729021        4.06895628906638        1.80298240826683
C            4.71370475451185        2.86178665138739       -1.05183383340140
H            3.62644913631860        1.82920881399142       -2.58095372613181
H            5.52450585254368        3.91679312711334        0.62428281594806
H            5.66222201622976        2.78711686263441       -1.56363428505921
C            0.27263572549109        4.48745129884220        0.67794764114058
C           -0.97035794086029        4.60173629264712        1.41010691534543
H            0.94743310245216        5.30169990209711        0.95254069338514
H            0.07137232899376        4.53595270871973       -0.39564494621693
C           -1.99687321371079        4.63644127978863        2.02322438049923
H           -2.89604489220941        4.68163446252542        2.56063024643993
Cl           0.26632262727785        1.12833646360397        3.25497940485147
Cl          -2.38642394555709        0.46570205294690        1.93451112141173
O           -0.90764026052718        0.35652541215311       -0.45144757760407
O            0.48085651389748       -0.68628771934331        1.36983675985291
C           -1.35762630668318       -1.89741405326723       -0.48299747385780
C            0.03723748106710       -2.19422842022780       -0.39514003911083
C            2.29566374708890       -1.79651819897744        0.39499990042493
C           -3.09911070935542       -0.28831365998842       -0.95679565410913
C           -4.05381853043384       -1.28567663182114       -0.82046494511364
C           -2.30755719276896       -2.93153196153191       -0.54029806768868
C           -3.63110713885921       -2.62307935044156       -0.62029115472132
C            0.52995065655463       -3.24914129554181       -1.18825767584552
C            1.86779431068679       -3.40318935968560       -1.36242557161284
C            2.78433068401545       -2.60397336193267       -0.62395372267893
H           -1.97883809169553       -3.94881701821015       -0.40446125441004
H           -4.38244668230894       -3.39218028155430       -0.53547058956729
H           -0.17429815466559       -3.83783241226430       -1.75253719938286
H            2.25745698899248       -4.11634049617585       -2.07051635252035
C            4.17447733891589       -2.63942003628834       -1.09911121898092
C            3.13783160069668       -1.36657286064936        1.59717674055447
N           -1.81408025296607       -0.61719797605554       -0.65929079402624
N            0.95602310713741       -1.53004138400502        0.40114621466058
C           -3.33854059997545        1.06772124551391       -1.61890872801485
C           -5.50714177256566       -1.06799152780025       -0.72456360141685
C           -5.99661507537955       -0.25360890324635        0.29525117350741
C           -6.40366099335736       -1.76276434138853       -1.52957746627379
C           -8.24725792059221       -0.79250484849085       -0.34049421721841
C           -7.76652183416550       -1.61618922682840       -1.34427002600775
C           -7.35928118693103       -0.11751360825514        0.48195604011369
H           -5.29577389825440        0.24823049764976        0.94558837409076
H           -7.73083301514018        0.51310817273389        1.27594788808380
H           -9.31150308479977       -0.68322743552880       -0.19407445849013
H           -8.45556035160250       -2.15022253480273       -1.98215375251880
H           -6.02964036617421       -2.40484589987522       -2.31471679035021
C            4.84837916529239       -3.84013133161993       -1.30516066313589
C            4.78679575852033       -1.44794836469537       -1.49047758929272
C            6.72196060692237       -2.65846538144492       -2.22841746755016
C            6.05073295367457       -1.45963690869238       -2.04764188031141
C            6.11649116944703       -3.84692359574062       -1.85630549239083
H            4.38507169196714       -4.76974196475336       -1.00691839802068
H            6.63470097831751       -4.78406757728484       -1.99710200628981
H            7.71105728907051       -2.66621103590801       -2.66107086218934
H            6.51329359143313       -0.53001797151418       -2.34501128527349
H            4.25800704226205       -0.51477018479775       -1.36022849466164
C           -4.70558373234976        1.13425226529724       -2.31347752936192
C           -3.24137610019788        2.25620840064512       -0.65618406118600
C           -2.28526534927210        1.22404956222525       -2.73471358777172
H           -4.72029092650240        2.00774867231624       -2.96201185206224
H           -4.88394625860955        0.25606585997072       -2.92882204551509
H           -5.51740836689133        1.23830875013041       -1.60263257650863
H           -3.53850363895090        3.16299791236111       -1.17816740700035
H           -3.90073731224038        2.11487737789558        0.19450254937988
H           -2.23082968474528        2.39240124693946       -0.29022545914624
H           -2.48317982139353        2.14007612688449       -3.28547821957064
H           -1.28170142650922        1.28698233664389       -2.32946343572471
H           -2.33789343801146        0.38627220774384       -3.42877420044997
C            3.34156126414783        0.14973282551233        1.66021120718035
C            2.43603804349214       -1.87314979115681        2.87505324934647
C            4.52728106332568       -2.02115505954317        1.61172448314395
H            5.19271351618007       -1.59515407432477        0.86955768824621
H            4.97472469538852       -1.84620812264417        2.58760340927126
H            4.46476079729643       -3.09553292741182        1.45992527346279
H            2.40536749676289        0.67564598889519        1.79117648519082
H            3.97615870338717        0.39044415378271        2.50910136704936
H            3.82582040300704        0.51104478539925        0.75623839999713
H            1.52732558837404       -1.32631245629418        3.09257826846937
H            2.20242883963091       -2.93269641356093        2.78264929880909
H            3.10447734271631       -1.74197649424601        3.72142491218228
