89
 energy: -135.438728424602 gnorm: 0.000906592756 xtb: 6.5.1 (b24c23e)
Si          -0.42606714106713        1.03691191383265        1.29645101662714
O            0.19031734777627        2.41277180663526        0.69467776972963
C            0.26280143912216        2.98576331113779       -0.59360871919267
C            1.61547947818219        2.70061354342924       -1.19972432130392
H           -0.51661198692968        2.55641337861050       -1.22803158097603
C            2.77007077205366        3.18785752615110       -0.59905612702601
C            1.72844342921628        1.93568095807401       -2.35315226737243
C            4.01108387047466        2.93538746526412       -1.15660846255152
H            2.69766529953409        3.75313067470336        0.31698875548450
C            2.96967879377687        1.67612655406071       -2.90766291335597
H            0.83946171234955        1.54272283565009       -2.82503962771812
C            4.11394990017111        2.18322351489798       -2.31524320011133
H            4.90105756221616        3.32521705053449       -0.68391192429499
H            3.04424965223212        1.07860446875778       -3.80469142861579
H            5.08175965649069        1.99085847183541       -2.75510060593005
C            0.02384633854624        4.50088657037063       -0.45906598266069
C           -1.32775948665162        4.77609665428446       -0.02194349653424
H            0.20827794672556        4.97600182604743       -1.42686463825556
H            0.71995409877299        4.90614008561884        0.27797519283224
C           -2.44851422507417        4.96575925563988        0.35167810070333
H           -3.42729779917205        5.14112073362986        0.68457779180532
Cl           0.14588091853975        1.69253732189865        3.24092830478000
Cl          -2.37450205573052        0.62364484224422        1.96204409741112
O           -0.86307450208044        0.44058322578014       -0.37662726854110
O            0.61708464279002       -0.27988202251469        1.55869420589445
C           -0.99728306000291       -1.85746074241714       -0.17946981725353
C            0.42359564637033       -1.97179747342597       -0.06504855806860
C            2.58905876715865       -1.28037676642367        0.78164237123548
C           -2.94517426313946       -0.57489484344727       -0.79902952740292
C           -3.75044046259660       -1.66761894517472       -0.52121630195141
C           -1.79367203208161       -3.01181246546337       -0.10401227249333
C           -3.14849154100361       -2.90301483364322       -0.17760988514349
C            1.04968113970224       -3.03284058758289       -0.74347197875761
C            2.40434819354735       -3.08065061775800       -0.82827557079117
C            3.20260751891323       -2.14584992756963       -0.11278918826000
H           -1.32158129066460       -3.95109967154402        0.13344590680969
H           -3.78446581123666       -3.75172698456651        0.01704313124592
H            0.43330015202998       -3.72919201443166       -1.28808258713571
H            2.89730387403010       -3.81463635250280       -1.44499117489262
C            4.62576214374643       -2.15456720056598       -0.48946816542224
C            3.31692715056304       -0.61668162593675        1.95104134435195
N           -1.62119043006790       -0.67421152229053       -0.48469467440581
N            1.23091556309664       -1.14742725598302        0.69783883262955
C           -3.38817174591924        0.62807958723161       -1.62860014349964
C           -5.21938739757415       -1.63529302011142       -0.42114750990698
C           -5.80814951983623       -0.77600433984797        0.50495418830444
C           -6.01847609307271       -2.53453489868274       -1.11932649115281
C           -7.97012226592204       -1.67686403196842       -0.01957458832518
C           -7.38801968191319       -2.54642553017117       -0.92649024828250
C           -7.17641363517883       -0.79786919555820        0.70001553767944
H           -5.17750712395607       -0.11374071689944        1.07912051263575
H           -7.62540150769957       -0.13036833969545        1.42049012624458
H           -9.03911779346130       -1.69017111322123        0.13239687978111
H           -8.00234214662306       -3.23945460933146       -1.48247586511719
H           -5.56530203213901       -3.21238379669160       -1.82913819600293
C            5.37842657224443       -3.32473395324545       -0.44910049198784
C            5.19151352080463       -1.00745077763473       -1.04431407606594
C            7.23781606458115       -2.19138682930755       -1.45626323370910
C            6.48835164614653       -1.02783736718873       -1.52101296750738
C            6.67874201292930       -3.33873298719313       -0.91933509064899
H            4.94742164541855       -4.22076112061331       -0.02565185769985
H            7.25705699653083       -4.24956713507899       -0.86973502784146
H            8.25150450339501       -2.20491139054273       -1.82759056096172
H            6.91654091155546       -0.13300634764782       -1.94836090130328
H            4.60028094622123       -0.10543655874365       -1.10862478116764
C           -4.73895086671298        0.39656763944108       -2.32064444143432
C           -3.49908455400233        1.92313667003495       -0.81999212709511
C           -2.36505038695243        0.78920499262776       -2.77086488457703
H           -4.86971235457676        1.16507696326142       -3.07991180702331
H           -4.77450011790995       -0.57193396528266       -2.81286092820193
H           -5.57003360834839        0.47186949294105       -1.62893534572801
H           -3.84219759856342        2.72592970060965       -1.46901652875953
H           -4.21141452595847        1.79981156253224       -0.00970392287523
H           -2.55036534085835        2.22014176448363       -0.39099074493222
H           -2.63664376147922        1.64758458565872       -3.38070776860421
H           -1.35985063891269        0.94570448429739       -2.39764675334634
H           -2.36593105659109       -0.09838537564457       -3.40254883500313
C            3.36835307947261        0.90655963979813        1.80218420592075
C            2.60424314851663       -1.01469181943792        3.26094785273165
C            4.76191098710382       -1.11292737535148        2.10830215945429
H            5.41613480145949       -0.73733000976338        1.32985358718461
H            5.14478824314518       -0.74722473628822        3.05842933454577
H            4.81185693847872       -2.19848505541159        2.12260593390417
H            2.37986911230569        1.34434564286770        1.75377521590094
H            3.87630953744219        1.33124155070511        2.66400718678740
H            3.91851437556492        1.17711851749007        0.90379029933903
H            1.65877159415791       -0.50296143090292        3.39079309755139
H            2.43767873222998       -2.09036776738538        3.28911798534006
H            3.23567746383138       -0.74497133497138        4.10279446032893
