69
 energy: -118.483603404272 gnorm: 0.000376506773 xtb: 6.5.1 (b24c23e)
Si           0.19974638653686        1.02548149893380        0.83594055491811
O           -1.01371078839530        2.24996504586927        0.36233284509229
C           -1.36521671630396        2.61075467279785       -0.79091801685931
C           -2.54142465689782        3.37596897935367       -1.02293324964419
H           -0.74712212770109        2.33185888685710       -1.64396416783293
C           -3.37120908826716        3.75569228204524        0.05026006794590
C           -2.89793767046911        3.76203868768173       -2.32784350512108
C           -4.51249518185417        4.48919443522090       -0.18125441002608
H           -3.08594850319865        3.44819474514024        1.04450642311452
C           -4.04361677887476        4.49577847211652       -2.54453675576035
H           -2.26217482818617        3.47531180957411       -3.15197778166352
C           -4.85487523113540        4.86210001082315       -1.47665401550983
H           -5.14565567305560        4.77833448453844        0.64472041118101
H           -4.31447267318047        4.79026640858750       -3.54791184703973
H           -5.75082762109201        5.43812410671217       -1.65365859549938
C           -3.47702177705044        1.07974088287816        2.46691838868028
C           -2.28233117817418        0.61541341700006        2.26158218642646
H           -4.32922114373594        0.73799035828785        1.89979798270871
H           -3.66641068312182        1.82184565476078        3.22579581520139
C           -1.08738015698619        0.19357240651514        2.02044100999689
H           -0.71002141595959       -0.66270122170155        2.56378658485536
Cl           1.62938896450530        1.79988170744744       -0.67423298087951
Cl           0.95434263999898        2.31872323889155        2.34891541792883
O            1.30945273511741       -0.38330754309442        1.24312828748728
O           -0.37400225825187       -0.03835814411491       -0.65969276676046
C            1.70954210648889       -1.84780611443071       -0.49367313342983
C            0.32484367770050       -2.24687267276152       -0.46902511737572
C           -1.97889734984589       -1.65634418268950       -0.38521497148642
C            3.44157154370192       -0.45673117460237        0.35785562309841
C            4.37852855782017       -1.02686218826128       -0.50127440716598
C            2.63824382797892       -2.46549815247975       -1.33761275464044
C            3.94620939230906       -2.05386903484666       -1.35841646765288
C           -0.04408299416312       -3.59698879600699       -0.46866430083983
C           -1.35798009009664       -3.97193332425277       -0.35953792472312
C           -2.36575547618234       -2.98931955793939       -0.27972140581750
H            2.29061661659566       -3.23814799459145       -2.00489247029177
H            4.65528532972866       -2.51872355963658       -2.02499939355427
H            0.73903422644339       -4.33818752341802       -0.49332566036350
H           -1.62839700116740       -5.01366555179194       -0.30032478661040
C           -3.77107655344080       -3.35657383894312       -0.10082648004086
C           -2.90903831922983       -0.60589821421005       -0.53755274287055
N            2.15982005215495       -0.88231495427054        0.35614321081830
N           -0.67452020036302       -1.30969746357686       -0.47668475373751
C            3.74708658918533        0.57413902968142        1.26763940823128
C            5.77688751061395       -0.58525745722866       -0.51808810610539
C            6.42037280741610       -0.37986479158396       -1.73770346395593
C            6.49157461260075       -0.39546070221979        0.66289781407243
C            8.44663761045596        0.20303912455175       -0.59517694928072
C            7.81715381401722       -0.00657367507638        0.62065512692253
C            7.74317406651499        0.01729387418021       -1.77380006185770
H            5.86918753509437       -0.50392552401267       -2.65824188188424
H            8.22741317031273        0.18392561983707       -2.72472441926505
H            9.48136146861517        0.50997670941798       -0.62454908373633
H            8.36280362132722        0.13153854535177        1.54219596647852
H            6.01141996313297       -0.57198292843277        1.61300612415078
C           -4.31617329480645       -4.43402053227957       -0.79821845991144
C           -4.57567074930057       -2.65461483449919        0.79673720047333
C           -6.43245938335917       -4.08397303441317        0.27490400545958
C           -5.89534035710368       -3.01937191227768        0.98086221367821
C           -5.63856057479432       -4.78980255747213       -0.61412730666630
H           -3.70643800609656       -4.97659939322625       -1.50606887121003
H           -6.05222649680549       -5.62063718804106       -1.16657256687294
H           -7.46474290154856       -4.36527017356918        0.41949440715550
H           -6.50767856881720       -2.47415815707747        1.68356302749601
H           -4.15236772974095       -1.84117454185908        1.36614394729616
C            3.90869478950716        1.46377107244059        2.05863677911854
H            4.04070754003287        2.25856625541814        2.73030628510865
C           -3.66292233706844        0.30056152197647       -0.76846306936348
H           -4.33633662008710        1.08705866599974       -0.93742901178556
