69
 energy: -118.572071670686 gnorm: 0.000938982354 xtb: 6.5.1 (b24c23e)
Si           0.25842581975090       -1.02324548899361        1.44872833353226
O           -0.37861211066189       -2.34134792531121        0.76243940339956
C           -0.42945714740756       -2.76489605003019       -0.58303240099283
C           -1.70511034432652       -2.26077764861605       -1.20591738827265
H            0.43345376088604       -2.36385810567347       -1.12254733824179
C           -2.91614360632552       -2.48017692740321       -0.56119421735611
C           -1.68954410975770       -1.55363820201591       -2.39938699370225
C           -4.09643270332793       -2.01961493854224       -1.11487577893632
H           -2.92112609486729       -3.00143745564199        0.38360121544571
C           -2.87082910915211       -1.08703225995127       -2.95055726673672
H           -0.74744834403561       -1.36704629302739       -2.89488048891654
C           -4.07679732605334       -1.32565518562310       -2.31414466290292
H           -5.03435316658511       -2.20255096418075       -0.61046944018086
H           -2.85079449816170       -0.53639709778287       -3.87993154838673
H           -4.99798442597231       -0.96569628145656       -2.74915224969825
C           -0.36475780424640       -4.30212149294487       -0.59821719070827
C            0.93157861370071       -4.75710344283161       -0.14395053643546
H           -0.55355110940120       -4.65768726752516       -1.61503277116815
H           -1.13551912324287       -4.69541914281973        0.06798859895036
C            2.01729577915910       -5.08221953050615        0.23942629022063
H            2.95450525696276       -5.38944161272995        0.59691308489120
Cl          -0.50765363047214       -1.59446005933693        3.31603571506051
Cl           2.23686285915238       -0.94382447322566        2.06419477512928
O            0.74571974623200       -0.37531184824971       -0.26296036168524
O           -0.52706202938109        0.47470432733281        1.67202470293619
C            1.14338208631121        1.92249409266949       -0.19729404833689
C           -0.23688842193873        2.17058502384569        0.01195012631273
C           -2.40669746764205        1.37345911468833        0.68255179752192
C            2.90594486128202        0.34992917709749       -0.57308175327554
C            3.86344701388734        1.35392950169379       -0.65603260888542
C            2.09202247929354        2.95907171524009       -0.34291095695448
C            3.41327157492092        2.68798322682106       -0.54624349030266
C           -0.87583953989950        3.30265613643463       -0.53759249117284
C           -2.23192214616510        3.43735124822884       -0.52042959665165
C           -3.04837411678862        2.42420150593144        0.04956565155019
H            1.75684710627673        3.97604250070353       -0.22241830618783
H            4.13293213031718        3.48957802686169       -0.59709591401910
H           -0.26524601026752        4.03582997235698       -1.03893547127789
H           -2.70185327405503        4.28815295076741       -0.98635344826422
C           -4.50671560914743        2.51981563963694       -0.00788120277430
C           -3.07987752052786        0.38334484071253        1.42860197245681
N            1.61019807933999        0.64105376401897       -0.33652221320245
N           -1.04995336981218        1.29693464125769        0.71050804032290
C            3.18694318318172       -1.00861622237924       -0.83920906723471
C            5.28207127316253        1.04076316128462       -0.82390862676753
C            5.86334326354862        0.00235218310314       -0.09578230376325
C            6.08085521241229        1.79906797592148       -1.67915600029322
C            7.99579007612486        0.48050168770235       -1.09049985871147
C            7.42651383283944        1.51569384563562       -1.81385653524426
C            7.21088853466205       -0.27098217502755       -0.23060302955527
H            5.25843303112477       -0.56497943781075        0.59493799349741
H            7.65358031742367       -1.07072720248468        0.34408730722009
H            9.04855384721820        0.26375195002787       -1.19371920781517
H            8.03421023195322        2.10444107406484       -2.48541215897439
H            5.63841529064182        2.59732833174373       -2.25778065895027
C           -5.13797207268907        3.75030378866777        0.17787042797667
C           -5.28930455508308        1.39566415668336       -0.26887125373681
C           -7.28321458745844        2.72720763138621       -0.14837046402589
C           -6.66480779560867        1.50236063835095       -0.33964729720127
C           -6.51431763846629        3.84957220556524        0.11222065728720
H           -4.54808270391354        4.62669117411356        0.40314697488634
H           -6.99028362803297        4.80676412111319        0.26680413562557
H           -8.35850516812368        2.80768890016824       -0.20262318981042
H           -7.25878127935204        0.62502533107215       -0.54923409548154
H           -4.80954901494771        0.44471644332525       -0.43870044897391
C            3.31883935365767       -2.16431349484887       -1.13816978451470
H            3.45497224100444       -3.18050155922583       -1.36066352509935
C           -3.55587970556982       -0.47150797091750        2.12604296511436
H           -3.98769154755913       -1.21672624911725        2.72501047243702
