69
 energy: -118.566396571400 gnorm: 0.000795747915 xtb: 6.5.1 (b24c23e)
Si           0.11381078033875        0.95521157377788        0.22144080916365
O           -0.15453268663136        2.53798538965831        0.38968889122185
C           -1.14386486380148        3.27840285453297        1.05833245718244
C           -2.35568204242964        3.45282978631128        0.17884618616334
H           -1.43232712449654        2.76295122897884        1.98124234757123
C           -2.22033515210429        3.48786153714483       -1.20220597454808
C           -3.61494573951676        3.60144902268740        0.74507319102036
C           -3.33061320244397        3.66759434010329       -2.00826592022366
H           -1.24217021517231        3.36090801769917       -1.63934492469972
C           -4.72443018137391        3.78619452169215       -0.06122205734521
H           -3.72479435117729        3.56397329626422        1.81916866491474
C           -4.58469165057300        3.81999657832474       -1.43989048599758
H           -3.21639524775573        3.68829984424074       -3.08217307881152
H           -5.70149889491439        3.89819433590710        0.38651148420399
H           -5.45240955781517        3.96037766737186       -2.06890709619115
C           -0.53287618333022        4.64886731014160        1.40846123125190
C            0.45005710775753        4.51907758553591        2.46171799570454
H           -1.32964704324948        5.32497714513600        1.72989867911711
H           -0.05989321954944        5.05320532746051        0.51027150651723
C            1.24730425229468        4.37370156073863        3.34203105722958
H            1.94151793337772        4.26292819443661        4.12054119006421
Cl          -1.36198690021074        0.33739721218373        1.72750098065145
Cl           1.58732411073179        1.53355756450872       -1.25371123588919
O           -0.49249417664171       -0.13398604235346       -0.95496112892784
O            1.17922440716840       -0.09448645293300        1.05475785840785
C            0.17223769166342       -2.31460258603280       -0.34539672718912
C            1.55810259440827       -1.97384266222593       -0.30125317211961
C            3.32529980364877       -0.44141987758748        0.25152949193110
C           -2.14841876093708       -1.70845358650961       -0.55574997825282
C           -2.56578316443501       -3.01083756685423       -0.33668167536311
C           -0.24259307404226       -3.64993905733543       -0.17564001419985
C           -1.56339674577032       -3.99515891230794       -0.15550337936742
C            2.53140642437223       -2.82206839989721       -0.86564077208473
C            3.84863553606409       -2.46395550343940       -0.91613303453390
C            4.27553729353437       -1.22267155581018       -0.38704708105954
H            0.51567612687836       -4.39479273971089        0.00522214182253
H           -1.85873683751013       -5.02020237387808        0.00117732798284
H            2.19828055479687       -3.73357232549994       -1.33533069076501
H            4.56817349374053       -3.09843936045011       -1.40832118081069
C            5.66143898673387       -0.77411765790226       -0.52848692867188
C            3.63272962741717        0.75009085898208        0.94078696666205
N           -0.82936701785354       -1.40018817007744       -0.59267560236160
N            2.03699504205826       -0.84455366724306        0.32011818075326
C           -3.03766836182407       -0.62968000166239       -0.74319077032832
C           -3.98378680476101       -3.37723413904527       -0.28316781855450
C           -4.43541103005351       -4.23970449020718        0.71537973029484
C           -4.89336686232840       -2.90605378893655       -1.22810732573328
C           -6.66276456331839       -4.13400399845160       -0.16730555037708
C           -6.22121728707855       -3.28463207916059       -1.16833692111174
C           -5.76533100493244       -4.60908112181496        0.77479190227531
H           -3.74321475661286       -4.59673464312815        1.46371306535558
H           -6.10396215956109       -5.26917383981130        1.55971646715649
H           -7.70130827130057       -4.42579883122287       -0.12203761938071
H           -6.91526013727622       -2.91751174895595       -1.90983205360514
H           -4.55234195537124       -2.25877254098592       -2.02127922214931
C            6.71797391544237       -1.66037545528372       -0.32436610625514
C            5.93913299501916        0.53984373343652       -0.90462857571441
C            8.29350137332549        0.07145723517146       -0.84424279857529
C            7.24788680848382        0.95452332419321       -1.06122024542028
C            8.02455047194580       -1.23656325406901       -0.47610550668238
H            6.51313761346979       -2.67702936335986       -0.02103103815145
H            8.83638910681119       -1.92863616816096       -0.30640535655317
H            9.31511138436746        0.39957439992728       -0.96549046922301
H            7.45371424507404        1.97153435886571       -1.35980444946453
H            5.12302544851163        1.21859319798520       -1.09871675884999
C           -3.74310383740933        0.33034465583499       -0.89657783811885
H           -4.36844540852261        1.16514022251826       -1.01182749384305
C            3.82269638286995        1.74763023510049        1.58217595698364
H            4.00554596180157        2.63748284546852        2.10639629591517
