69
 energy: -118.567893033799 gnorm: 0.000628886718 xtb: 6.5.1 (b24c23e)
Si           0.41696832051465        1.33896634400828        0.52882330857875
O           -0.25008943169205        2.71136974571019       -0.08761130940491
C           -1.46090765694197        3.34909674229891        0.21006505789693
C           -2.63247375515718        2.71521123370908       -0.49796608037476
H           -1.62525641285820        3.30017741931044        1.29607894772856
C           -2.45683760108388        2.03556855946257       -1.69388960430560
C           -3.90872329913404        2.81896184286415        0.04052104100989
C           -3.53200997211198        1.42645223764587       -2.31645412232170
H           -1.46738559885964        1.97157192266897       -2.11824523520552
C           -4.98698102247840        2.22507394961842       -0.59024774244823
H           -4.05425036919903        3.37115744280461        0.95872076628256
C           -4.79838008842075        1.51497733665165       -1.76412755949055
H           -3.38229698732327        0.88308838048816       -3.23868885171146
H           -5.97551095644505        2.30854391873858       -0.16183514028315
H           -5.63777267434223        1.03930608801890       -2.25125804784076
C           -1.33125852367412        4.82681829060422       -0.21544709701582
C           -0.33551253687072        5.50488502399270        0.58519186233337
H           -2.30004354089442        5.32034242214237       -0.10192932675138
H           -1.03542301344946        4.85642118250907       -1.26705836638788
C            0.49676467428345        6.03103328086247        1.26445019680484
H            1.22114005587312        6.50749642200974        1.85414144145354
Cl          -0.06792522331922        1.57709676233541        2.51137827482111
Cl           2.14620978079543        1.82352302869857       -0.51921682608593
O           -0.60960150069626        0.31692669858494       -0.36363688790689
O            1.25502618242730       -0.23937886583807        1.16408288356655
C            0.06513679536600       -1.96609613738188       -0.64716243318657
C            1.46686902325039       -1.74259341280589       -0.61745342295026
C            3.36394059714700       -0.69649851628640        0.39131307942833
C           -2.12477125979246       -1.35135483832491        0.14513273997544
C           -2.65530667824787       -2.57790052277381       -0.20032994254895
C           -0.48283471164072       -3.20029063910465       -1.05181596713134
C           -1.80440108939999       -3.49408145419775       -0.87211013741102
C            2.35415307720827       -2.40609174993491       -1.49392749811693
C            3.70105677026708       -2.19357505946769       -1.44122307153199
C            4.24724539486677       -1.31132892468588       -0.48742483916614
H            0.17949564839516       -3.94305670426034       -1.46566386552139
H           -2.20577441828960       -4.43920306068993       -1.20031825385954
H            1.93716794939007       -3.04512609503544       -2.25452535171534
H            4.35754158819746       -2.67237181841925       -2.15061555218051
C            5.68151553253530       -1.02109366843613       -0.45167907086950
C            3.79213362459481        0.10889641149178        1.46901609195393
N           -0.84480060841441       -1.02235598158043       -0.20249441786836
N            2.03405304286927       -0.91091965410112        0.31271735948379
C           -2.81200595116558       -0.40255330934191        0.92677095132424
C           -4.04589672354369       -2.92557863317908        0.10576574787056
C           -4.36777298056032       -4.20157963868586        0.56566594328398
C           -5.07036433789353       -2.00027313297152       -0.09137566819876
C           -6.69129407690255       -3.61156802503883        0.64353750441329
C           -6.38153474557573       -2.34473344141881        0.17626644026353
C           -5.68027173180056       -4.53834566265283        0.83704977282619
H           -3.58095728559247       -4.92235440182433        0.73477676073005
H           -5.91593128338939       -5.52714734312285        1.20227421942197
H           -7.71648723481516       -3.87702475963950        0.85415197974811
H           -7.16704307449985       -1.62131768873594        0.01543515253196
H           -4.83719422355127       -1.01737453303264       -0.47273867595263
C            6.61713729823293       -2.04659429962926       -0.57555120442376
C            6.12647766142370        0.29518294928283       -0.33255335744014
C            8.40521347271986       -0.45454258139842       -0.43382926012135
C            7.48022289861873        0.57154861163417       -0.32530414977842
C            7.96980880882895       -1.76336637319913       -0.56023851887458
H            6.28106814919468       -3.07024224337444       -0.65942546999206
H            8.68747923363058       -2.56606357013887       -0.64687324239129
H            9.46250441522877       -0.23513560201577       -0.42469026707473
H            7.81619367080491        1.59415143470623       -0.23998423094198
H            5.40343005645684        1.09426447626805       -0.27582816607407
C           -3.29416245832694        0.39802967063641        1.68186877979484
H           -3.73874537133195        1.07744183881832        2.34489221328622
C            4.09352299585325        0.74487062187077        2.44182919951372
H            4.37338669071073        1.32374805229319        3.27063751652342
