69
 energy: -118.482815470572 gnorm: 0.000773972743 xtb: 6.5.1 (b24c23e)
Si           0.73932272658245        1.64495301700126       -0.72539173534063
O           -1.16815373098277        0.99570937571756        0.74709892288064
C           -2.22932413299292        1.59198369354262        0.76408700562553
C           -3.40616925805888        1.13383536087610        1.48603530736226
H           -2.35108210283820        2.52270237057777        0.19250273990818
C           -3.30765312848174        0.08727582015254        2.40773888516904
C           -4.64999293783364        1.72402870931910        1.24995396915164
C           -4.42696924809959       -0.34656530683349        3.08696527326644
H           -2.33816902856120       -0.35599517882354        2.58210825471818
C           -5.76952360571567        1.26959790690674        1.91658591063486
H           -4.72468469199745        2.53001590863471        0.53523314061559
C           -5.65978112225223        0.23965557863505        2.83947534317655
H           -4.34578491610019       -1.14186801860184        3.81346293568194
H           -6.73185768837347        1.72093480986778        1.72685821345363
H           -6.53600898617795       -0.10361342553213        3.36874129585639
C           -1.47563628467466        4.96579559440394       -1.12701487316534
C           -0.96775173391676        3.82660325189634       -1.48069798586826
H           -2.44368238495443        5.04986240008857       -0.65868111767788
H           -0.93606961715249        5.88599522454946       -1.27686615567559
C           -0.43855944785059        2.69449675838521       -1.81025350251356
H           -0.60603844051476        2.29708492420785       -2.80115736605220
Cl           2.42387557161305        1.69877059615447       -1.98367076084745
Cl           1.02084061756018        3.13968816075341        0.73880501029300
O            1.43005520403393        0.57029771845288        0.49297904414416
O            0.08748912188292        0.13909810651878       -1.56950189606003
C            1.59018652695650       -1.69301519379845       -0.11784648692816
C            0.17929869305559       -1.80406162038867       -0.27712902559255
C           -1.89599756753911       -0.92632973109498       -1.06546828234940
C            3.52781468425183       -0.35941442891961        0.32115075727088
C            4.37738781902994       -1.44587869489086        0.16316191228264
C            2.43332873590913       -2.81656787596264       -0.23113726851674
C            3.78870749740516       -2.69998037569313       -0.11935294619342
C           -0.52249031594780       -2.92602834460499        0.20916398994138
C           -1.87975368753748       -3.00917214255408        0.12028422806376
C           -2.61569330086921       -1.98194190241635       -0.52108405299588
H            1.98291528538269       -3.76724572292760       -0.46730457885219
H            4.42417604876160       -3.56380875633508       -0.23354552019367
H            0.04115678179255       -3.69465060752977        0.71345563975019
H           -2.40644763616499       -3.85880038173946        0.52392745743973
C           -4.07795366819903       -2.03407036191839       -0.56545493021464
C           -2.52054687830707        0.13916393599007       -1.75086919842428
N            2.18778119165587       -0.49919958104247        0.19082724005214
N           -0.55111826615343       -0.84374879896579       -0.93651355438099
C            3.97987760981059        0.94004404890275        0.63208833065025
C            5.83212181464916       -1.31933613257162        0.29067062014010
C            6.66405922509661       -1.94191967663098       -0.63926973812026
C            6.40955973419961       -0.61123685861855        1.34315831713471
C            8.60278890917562       -1.13391977638792        0.51854463319243
C            7.78415002673711       -0.52255977013158        1.45386743547669
C            8.03771262349650       -1.84347908737292       -0.52827861391994
H            6.22775670508313       -2.48025505887825       -1.46797984571111
H            8.67065322381420       -2.32033858773685       -1.26228606445023
H            9.67638169489705       -1.05903670088793        0.60540007637627
H            8.21933068148768        0.02467519931341        2.27687009365703
H            5.77774707332226       -0.14737888760137        2.08473794244243
C           -4.79886597328637       -1.70459378688652       -1.71264334397617
C           -4.77988503574798       -2.43385717469922        0.57264731644831
C           -6.86704434066581       -2.11438754075179       -0.56307283336855
C           -6.16017998378690       -2.46442781649467        0.57520311701662
C           -6.17979520872079       -1.74536570947748       -1.70779385550175
H           -4.27300691601752       -1.43985521329764       -2.61650842077552
H           -6.72400449307330       -1.49216255160894       -2.60559307252460
H           -7.94639286870485       -2.13805465370630       -0.56122068393176
H           -6.68727823703828       -2.76264313272143        1.46946420878147
H           -4.23623074301325       -2.69502461873013        1.46791651194999
C            4.27843623010627        2.07065257542314        0.90598025503975
H            4.54761545492815        3.06006918839874        1.12643705939025
C           -3.00596956984113        1.07264396399807       -2.33046707071447
H           -3.44151133453524        1.87925198709987       -2.84057061359479
