69
 energy: -118.568585470943 gnorm: 0.000871245150 xtb: 6.5.1 (b24c23e)
Si          -0.39940488813829        0.83896574573519        0.85848557221560
O            0.03764423411757        1.79639037129222       -0.37259003422999
C            0.24079238552709        3.18602841642966       -0.40856043095183
C           -1.06604601150244        3.92417671350857       -0.27304717437348
H            0.90830633064949        3.47134544250869        0.41400612422519
C           -2.21370476900636        3.40816033919538       -0.85921296289416
C           -1.13716189696482        5.11328327070299        0.43801967030070
C           -3.41825047987842        4.07614261294733       -0.73486866284719
H           -2.15438200115034        2.46941172824897       -1.39019184668901
C           -2.34259332830742        5.78120949263848        0.55864322630823
H           -0.24872752935088        5.50550408696908        0.91036182823068
C           -3.48485435610303        5.26484053202449       -0.02871004702144
H           -4.31099836966098        3.67209981523014       -1.18979324815963
H           -2.39263524664343        6.70214019617950        1.12055900143493
H           -4.42694756872565        5.78389284987393        0.07091304330164
C            0.91261525573419        3.51309149723834       -1.75580079423843
C            2.20780646965636        2.87491272555958       -1.85322947532801
H            1.02322320444256        4.59679211447854       -1.84441973345889
H            0.26818185893242        3.15254071909284       -2.56100069063851
C            3.27310427953277        2.33079292394832       -1.88919127083897
H            4.20714156945312        1.85540086957917       -1.94286461579859
Cl          -2.25265044614745        0.46820603116118        1.72109064012327
Cl           0.14616957440567        2.17957104180369        2.45878277180168
O           -0.77047674306508       -0.32004188520857       -0.51107618943454
O            0.76428005889701       -0.26440984300822        1.45313086827124
C           -0.19445382673382       -2.51728181378786        0.03493054306656
C            1.17788682031954       -2.15149357406755        0.08481248715152
C            2.84487352017513       -0.45775968216862        0.45086973583741
C           -2.46208403653728       -1.89406518560231       -0.40690170606863
C           -2.91054360372390       -3.19467539985594       -0.21268774107134
C           -0.62731845383931       -3.84825161839816        0.20168152061251
C           -1.94862856876584       -4.17739427808425        0.11728976886874
C            2.18596202040067       -2.97236257895515       -0.45782558062986
C            3.46352633983960       -2.51732865477741       -0.61111565826991
C            3.81463104129337       -1.20760486896239       -0.19183912661124
H            0.11086320043853       -4.59414367537040        0.44873505931876
H           -2.27195319669012       -5.19421429800605        0.27388701600196
H            1.90442808721473       -3.94670326526705       -0.82400125125333
H            4.21878517384831       -3.14174517496523       -1.06077717189198
C            5.15579811517602       -0.67709542332260       -0.45527985219503
C            3.07249942260998        0.83164585694812        0.97323348653692
N           -1.15590507348386       -1.57961612413776       -0.26026028821859
N            1.59150260508164       -0.94961716596760        0.61736576612778
C           -3.32208953911260       -0.83983595155960       -0.78504273659839
C           -4.32455116843469       -3.55969985732225       -0.34315016746266
C           -4.92097473519196       -4.36031879611047        0.63028600833818
C           -5.08472645685298       -3.15046687740831       -1.43692327324210
C           -6.99852917668091       -4.30934279796263       -0.56669883483581
C           -6.41053377486250       -3.52508205305331       -1.54524932567165
C           -6.24894404751702       -4.72555956504033        0.52112632296149
H           -4.34494685346961       -4.67207880010470        1.48926669940482
H           -6.70200470099408       -5.33601163080646        1.28827087233599
H           -8.03570016077733       -4.59676966687356       -0.65229679923782
H           -6.98783176638984       -3.20615040125953       -2.40047203210781
H           -4.62685801427361       -2.55562587626913       -2.21198169326776
C            5.88421339897656       -0.00412935665489        0.52390219015526
C            5.72483659154436       -0.85344583391181       -1.71696693972416
C            7.69616024283311        0.32093963966024       -1.01846374620904
C            6.98206399525129       -0.35228868177202       -1.99638861696601
C            7.14465482218597        0.48823445229372        0.24126751570716
H            5.46677850065979        0.11528855731733        1.51140437611024
H            7.70096726413264        1.00398616269456        1.00970797263736
H            8.67876283627819        0.71136343434797       -1.23731639347765
H            7.40532339775203       -0.48432452361771       -2.98140835420534
H            5.16253405757267       -1.36095380464662       -2.48776345901840
C           -4.01756588762589        0.07094783127202       -1.14379189441747
H           -4.64682286130283        0.85851296848764       -1.43282033693521
C            3.18936800025028        1.92266115928789        1.46248908374277
H            3.30628886271376        2.87507938562002        1.88621598538126
