69
 energy: -118.564944775458 gnorm: 0.000355043513 xtb: 6.5.1 (b24c23e)
Si          -0.33835692896713        0.76547234518870        0.45653769975694
O           -0.66411385006640        2.15815321254451        1.21573832937884
C           -0.46099125591496        3.50038399972357        0.85224680162199
C           -1.56136399778933        3.95825704403435       -0.07172507028867
H            0.51039237676416        3.60394710340725        0.35465651154219
C           -2.84848288192577        3.46294661464469        0.08928543268279
C           -1.30574137484020        4.88031650351785       -1.07674700846690
C           -3.86769219336216        3.88902676905190       -0.74310466377491
H           -3.03944811480914        2.73226021335516        0.86113035343464
C           -2.32686739071545        5.30518340810191       -1.90818993421244
H           -0.30190414789074        5.25557903262810       -1.21303803216639
C           -3.61017209996465        4.81271632108714       -1.74170663728062
H           -4.86909913085526        3.50581961892254       -0.60628482299155
H           -2.11955328481850        6.01963196268676       -2.69135586419287
H           -4.40654284480960        5.14562764341530       -2.39159118669607
C           -0.46722711647551        4.34110443987897        2.14252853562438
C            0.67990701137486        4.03666603872448        2.96918179374345
H           -0.46269196627459        5.40122427649899        1.87450611041518
H           -1.38145989405030        4.11626591214707        2.69710380562860
C            1.63668315922694        3.76571517704417        3.63479104323481
H            2.46052791949857        3.52923192751854        4.23991005389526
Cl          -1.72682671838396       -0.13667754534367        1.83706019392939
Cl           0.77755592801741        1.67790770770631       -1.17463770122576
O           -0.76736941020408       -0.35025134489646       -0.80340859677744
O            0.94374781992252       -0.12822213377216        1.13307834486368
C           -0.00597305330882       -2.47780302147220       -0.18609988351458
C            1.35470788800795       -2.04834080031120       -0.18289012555076
C            3.02460567575070       -0.34753333972137        0.14912516006858
C           -2.34693756338352       -2.01556865152307       -0.48591015831167
C           -2.69862212839622       -3.32920358108494       -0.22149797450780
C           -0.34989921090485       -3.82309398810456        0.05281961328109
C           -1.65054728166756       -4.23865930845843        0.05667306025182
C            2.37137063354784       -2.87468067454103       -0.70418849869514
C            3.65656721851214       -2.43381481409043       -0.83898337360208
C            4.00750510364508       -1.11559065654534       -0.45492622018034
H            0.44169021738445       -4.51309220103196        0.29685128781034
H           -1.89379252570657       -5.26759866200100        0.26870231743865
H            2.09205728903933       -3.84970037979689       -1.06984241956301
H            4.40527767585537       -3.06461618229592       -1.29048486413318
C            5.35751355413993       -0.59653030681242       -0.67682723633745
C            3.26326600434461        0.92665470035478        0.70587377661849
N           -1.04925110312586       -1.63521350918472       -0.48692593494358
N            1.77328202809134       -0.83421398114949        0.32050306840484
C           -3.27866416787089       -0.99484325089549       -0.77013995597014
C           -4.09557809525947       -3.77087453341019       -0.20993753891645
C           -4.54955326995028       -4.59911609387703        0.81586644589263
C           -4.98282769507853       -3.39814821803484       -1.21799768311065
C           -6.73816954309939       -4.65120833326610       -0.16403330202848
C           -6.29279065242240       -3.83796232360327       -1.19297255993731
C           -5.86215830688353       -5.02955783415907        0.84007278765373
H           -3.87534719023218       -4.87808925434152        1.61196436866832
H           -6.20462548870727       -5.66087629388518        1.64665492238539
H           -7.76335988493574       -4.98944981740743       -0.14491141297592
H           -6.96964386391866       -3.54672379056739       -1.98255196061471
H           -4.63693985560508       -2.77919926176601       -2.03156699084156
C            6.46929715282888       -1.40097344533260       -0.42762963810900
C            5.55314211532058        0.69705290329804       -1.16001808891746
C            7.93161668827242        0.37096762045375       -1.11590104644832
C            6.83216189268535        1.17255554877611       -1.37744134836303
C            7.74567852625291       -0.91695079264580       -0.64098211302416
H            6.33091111954776       -2.39945255975114       -0.03882560811458
H            8.59923014899695       -1.54591930730068       -0.43452619631255
H            8.92980638474536        0.74681836320392       -1.28385683892389
H            6.97234134709475        2.17348288219999       -1.75748500615648
H            4.69805175300224        1.31555620371234       -1.38505940243494
C           -3.99983559810173       -0.07113286668621       -1.03337363795478
H           -4.65506231688688        0.71944853459928       -1.24775522755888
C            3.38982484769009        1.99998961156568        1.23011820353576
H            3.50475591797148        2.94962741907999        1.66110474240088
