69
 energy: -118.574617315816 gnorm: 0.000588799424 xtb: 6.5.1 (b24c23e)
Si           0.13141345049860        1.27946826605217       -0.23384498085610
O           -1.36792852524216        0.96032891873402        0.32327083867405
C           -2.20176327215850        1.68568814796862        1.19039270962001
C           -2.76924527753376        2.92466071661822        0.54763066316935
H           -1.62507282684867        1.97822882453806        2.07695259526339
C           -2.90678843513139        3.01515077821534       -0.82856530828762
C           -3.17447491327550        3.98753768585791        1.34416789655226
C           -3.43209210016118        4.15832520493609       -1.40431400728109
H           -2.57831769781792        2.19216770276968       -1.44426962130620
C           -3.70843382316575        5.12546974789572        0.76883401939121
H           -3.05594626123689        3.92612762794698        2.41643639452949
C           -3.83698393652026        5.21416711407428       -0.60727281882507
H           -3.51935044668655        4.22613092376420       -2.47878427834157
H           -4.01552422793415        5.95015217796920        1.39516807154950
H           -4.24464822837503        6.10788387307482       -1.05645899054622
C           -3.33807543287418        0.73239749000529        1.61504317419587
C           -2.80440417478992       -0.37229229788026        2.38037465265644
H           -4.06205358514945        1.28546150378862        2.21774988941628
H           -3.83405270185460        0.35522798955728        0.71622981355502
C           -2.29784034993582       -1.25930885466564        3.00421681178768
H           -1.87760378724653       -2.03933746957805        3.56576624168856
Cl           0.52466953184720        2.12188779148215       -2.05820694730641
Cl           0.48051008749845        3.06730208948561        0.88933686970773
O            1.35116543799874        0.57946450822248        0.73307439328590
O            0.03926789876592       -0.29556087847369       -1.17784964212744
C            1.73716615388751       -1.75166518755511        0.41506897040043
C            0.36441389543903       -2.08954528442057        0.28464832843506
C           -1.76058104700113       -1.67052179766790       -0.72339336203855
C            3.48666903726827       -0.11207790242541        0.18933747893575
C            4.46998654486809       -1.08409260849150        0.19757782360562
C            2.73778939127275       -2.73900179760759        0.52184801776659
C            4.06191164991602       -2.42554336330952        0.42265481859548
C           -0.20100194924878       -3.21412798409927        0.92292641339964
C           -1.51981083825860       -3.52626351986921        0.77078558196034
C           -2.34171785667774       -2.75508639310835       -0.08039619206441
H            2.42892130573747       -3.76737624122951        0.61847197069277
H            4.81371611225938       -3.19475101835003        0.49465886755467
H            0.42700872237250       -3.79260726554887        1.58099893203082
H           -1.94870566595855       -4.37227485177876        1.28428954846944
C           -3.75986396059722       -3.08540032197996       -0.24964951955515
C           -2.48212231601991       -0.83857285788659       -1.60670429946595
N            2.17988206521073       -0.44455971936051        0.37923379622982
N           -0.46244766144527       -1.35887761136061       -0.53103529089010
C            3.72791593904864        1.26081717171570       -0.02558463713443
C            5.88567251357931       -0.76575905582754       -0.00852762540947
C            6.67038366428154       -1.59136065063402       -0.81346306364214
C            6.48007630383162        0.33312212582863        0.60940858863079
C            8.59175189812680       -0.22039019714186       -0.38962446499710
C            7.82265702866305        0.59980191904783        0.41907911397375
C            8.01052264307005       -1.31627483183729       -1.00569851864231
H            6.21828115607806       -2.43720778999884       -1.31072553652618
H            8.60413834784574       -1.95859317637243       -1.63935127591742
H            9.63988172235080       -0.00813277985780       -0.53791699725496
H            8.27241306573221        1.45082968967555        0.90823393767207
H            5.89140165666853        0.96527671522573        1.25572208148722
C           -4.34250381631541       -3.17027910590032       -1.51248483697829
C           -4.54364091151191       -3.33971650156837        0.87503816162000
C           -6.45332997430538       -3.73870764744074       -0.52045347226629
C           -5.88125591909858       -3.65762274792314        0.73858433572130
C           -5.67923381724847       -3.49673751646060       -1.64331939912293
H           -3.73947457855799       -2.99980112551464       -2.39125112693040
H           -6.11871483714742       -3.56617225253753       -2.62733952346335
H           -7.49793708934469       -3.99035031843741       -0.62596447127027
H           -6.48065639096622       -3.84132805311546        1.61800058081121
H           -4.10445137837672       -3.25055059347281        1.85742042014603
C            3.80716831506168        2.44217993480222       -0.23021038552501
H            3.89989502798796        3.47253596885384       -0.40472672087680
C           -3.06360712703521       -0.12546249408182       -2.37893281838245
H           -3.58751542812320        0.48957845667874       -3.04880366996282
