69
 energy: -118.574609687246 gnorm: 0.000654416890 xtb: 6.5.1 (b24c23e)
Si           0.00213110563947        1.32982204714426       -0.41557824072855
O           -1.45619008014320        0.94297626948804        0.20369636227915
C           -2.27434831966875        1.61741660575950        1.12486630858189
C           -2.94838140621370        2.82511974700596        0.52708395007364
H           -1.66253479391083        1.93823324780400        1.97753334634068
C           -3.16083182317626        2.92188501822872       -0.83902358770286
C           -3.37954913456178        3.85107191125330        1.35792635572504
C           -3.78906802922793        4.03407077097041       -1.37080529307234
H           -2.81095642572356        2.12917908237301       -1.48218318609043
C           -4.01544415222221        4.95762972358571        0.82690335554124
H           -3.20201438560827        3.78574439398579        2.42183479379364
C           -4.22117689112284        5.05198634945946       -0.53940081330779
H           -3.93628505918171        4.10758553927655       -2.43827557744393
H           -4.34272925004836        5.75370823654132        1.47955520682294
H           -4.71028518093751        5.92103896426462       -0.95442376433528
C           -3.32851230041726        0.60022516605645        1.61014029490487
C           -2.68954105825026       -0.47611440718700        2.33402765784517
H           -4.04481355460113        1.10939031318007        2.25901844449843
H           -3.85574437784623        0.19980737814163        0.73947609653185
C           -2.09988576524158       -1.33673067257286        2.92056221229472
H           -1.60703010573776       -2.09513099015954        3.45183407826792
Cl           0.28326835310790        2.19327169395942       -2.25149597089449
Cl           0.31878901893325        3.13057144560883        0.69734674875315
O            1.28925385201437        0.67986364616911        0.49915214581044
O           -0.06016929120720       -0.24257514741598       -1.36318686806067
C            1.77815193276238       -1.62522806511529        0.13866871701166
C            0.41888170018751       -2.02931186873872        0.06603793323299
C           -1.76940110972082       -1.70516684124482       -0.83550629626669
C            3.43397329148228        0.10216455634167       -0.13342544255152
C            4.46401805814284       -0.81933950607680       -0.17718300271806
C            2.82974792652829       -2.56272526232144        0.18896964630147
C            4.13181206709246       -2.18249387439061        0.04211222986930
C           -0.06026200730199       -3.18579131065636        0.71755325263387
C           -1.36851849439075       -3.55993975959681        0.62556156567024
C           -2.26616600617278       -2.82132169973212       -0.17650135705004
H            2.57593342159575       -3.60649675241857        0.28124088568226
H            4.92273265946508       -2.91435905444598        0.07187485369305
H            0.62586349226568       -3.73906035088947        1.33820830530288
H           -1.73155938726197       -4.42984983442112        1.14984540840216
C           -3.67377296140459       -3.21791254822103       -0.28110020607432
C           -2.57308554035573       -0.90309859129581       -1.67439423610476
N            2.15387074613272       -0.29731435877826        0.10274280712392
N           -0.47979026487036       -1.33286971785997       -0.70250491943513
C            3.59856253581224        1.48801151649955       -0.33731248900748
C            5.85289433777957       -0.42635105768673       -0.43126736283531
C            6.64737254875060       -1.19903159929983       -1.27807214318138
C            6.41370278405194        0.69328701829464        0.18116801667885
C            8.51034187261120        0.26488711966656       -0.90697236091979
C            7.73209899544470        1.03252991204163       -0.05637317681980
C            7.96301729301405       -0.85166923966666       -1.51710743158615
H            6.22070507438348       -2.06042065335010       -1.77097695096782
H            8.56389745052129       -1.45326204247325       -2.18296726564114
H            9.53937150071278        0.53391952360117       -1.09236203103594
H            8.15610375921259        1.89877360784923        0.42874040296988
H            5.81902595084408        1.28451805353425        0.85987118661756
C           -4.30810747644498       -3.33202926617611       -1.51621955385821
C           -4.39230273485048       -3.50752494643850        0.87789640593115
C           -6.34172075183426       -4.00046240248717       -0.42983786713327
C           -5.71796849045034       -3.88953309175275        0.80204546786195
C           -5.63204332200086       -3.72310269419453       -1.58655841768070
H           -3.75447211169827       -3.13313954207789       -2.42121110574138
H           -6.11170591176296       -3.81557298879128       -2.54965508085763
H           -7.37660698662349       -4.30267212020253       -0.48810543590316
H           -6.26759041799766       -4.10034200591528        1.70754590580046
H           -3.91324242978767       -3.39624139633224        1.83926971478586
C            3.61264965245088        2.67427606463487       -0.52756932379156
H            3.64907683766734        3.70998390596749       -0.69027151716547
C           -3.22891482509943       -0.21470623056392       -2.40837922937598
H           -3.81592260354533        0.37835506224665       -3.04505755828499
