69
 energy: -118.568899289131 gnorm: 0.000907001507 xtb: 6.5.1 (b24c23e)
Si           0.21653411939594        1.64569484635849       -0.64313262875452
O           -1.35777269297027        1.67951492018007       -0.26058674100211
C           -2.25318956255877        1.99780378467704        0.78051784267305
C           -2.03635835516686        1.04559278873967        1.93287951625617
H           -3.24380470808754        1.80644170325010        0.33868692688997
C           -0.83474106205266        1.03807067852786        2.63088993013992
C           -3.01633157956326        0.11756638741546        2.26096719989880
C           -0.61023579105120        0.09756326934157        3.62062565124984
H           -0.06721626357332        1.75602137821113        2.38806260414779
C           -2.79608859901919       -0.81094440203380        3.26324804293943
H           -3.95604663894510        0.12566236723800        1.72590089959239
C           -1.58772835421350       -0.83044739388045        3.93770822822928
H            0.33184672098405        0.09302912097424        4.14890168822201
H           -3.56760423484367       -1.52337945603967        3.51844230096341
H           -1.41101460065268       -1.56295048963713        4.71190469129383
C           -2.20064041022421        3.46939719005622        1.21865484654920
C           -2.51103103458297        4.33618251416312        0.10253727352833
H           -2.93229230025720        3.61236988792231        2.01899196803197
H           -1.20486262848294        3.71557108301188        1.58899899870320
C           -2.76814416822971        5.01249281280521       -0.84974854777646
H           -2.97434556133912        5.63099255160964       -1.67093579116853
Cl           0.74721595345493        2.31176798167422       -2.49438420334192
Cl           0.92993509235465        3.37448137800545        0.39621487470628
O            1.25443579544466        0.78886465425958        0.41730932950460
O           -0.07893648261490        0.01781694733490       -1.50833280226468
C            1.24852647482790       -1.58892697279535        0.27270113804260
C           -0.15303470075616       -1.69296381985013        0.07942420591578
C           -2.11787213749783       -0.97794606158869       -1.07859903341921
C            3.26313493138598       -0.28895180490301        0.04992144563603
C            4.06199039253900       -1.41060869378224        0.17463131461684
C            2.05655981363826       -2.72149170790241        0.50012590813836
C            3.41806536897866       -2.64443969669347        0.45781619187042
C           -0.93753938642660       -2.65890265221413        0.74351328124292
C           -2.27651926700874       -2.76347717574052        0.51169810448199
C           -2.90915614068954       -1.92092015734360       -0.43037136446773
H            1.56920945599265       -3.67241271070287        0.64336884068648
H            4.02169773403317       -3.52287639462247        0.61980588499466
H           -0.45788222950490       -3.28474677590601        1.47785309745561
H           -2.86423562659418       -3.50069520174114        1.03462938006950
C           -4.34515553168496       -2.04244628129661       -0.69082353417580
C           -2.62927127721321       -0.05181662406635       -2.01339453628065
N            1.91112770850198       -0.38247531083704        0.17964901570975
N           -0.79460309159825       -0.88722668126104       -0.82905283092840
C            3.74887815126567        1.00605640596083       -0.22646948181633
C            5.51890614231218       -1.34979903569025        0.02679166648401
C            6.18411131554006       -2.34677738987333       -0.68666058958629
C            6.26546305164945       -0.32557095648692        0.60692886483097
C            8.29061157431051       -1.28503282103836       -0.25422108238170
C            7.63994299129778       -0.29697368224865        0.46605012440721
C            7.55779981983887       -2.30999765799697       -0.82947776419364
H            5.61580372108101       -3.13830956773473       -1.15327865319797
H            8.05917088949376       -3.08280167039555       -1.39338580211945
H            9.36419401490134       -1.25798980942571       -0.36540817537863
H            8.20697038854498        0.49974137735161        0.92390780103474
H            5.76717947179573        0.43686038637520        1.18529539343715
C           -4.85808028305398       -1.98821467974185       -1.98658781776287
C           -5.22849391254284       -2.24464755917501        0.37075487310837
C           -7.08611002882988       -2.29557692856282       -1.14540075204461
C           -6.58601572320407       -2.36297263157552        0.14470886824370
C           -6.21625573562821       -2.11414591169043       -2.20808083968530
H           -4.18603122324113       -1.86914134276243       -2.82214239351391
H           -6.59810412922184       -2.07445418252555       -3.21746288571091
H           -8.14720471686584       -2.38823881871229       -1.32124533341517
H           -7.25770728403008       -2.50717405781374        0.97838942276585
H           -4.84780959746735       -2.28431670096526        1.38048753022771
C            4.04456402659347        2.14037393660564       -0.49110719711668
H            4.32518937724445        3.12652477853231       -0.71427251999229
C           -3.00803777071264        0.77090027252293       -2.80195970761520
H           -3.34869167520321        1.48945146615038       -3.48584515780732
