75
 energy: -124.908899549320 gnorm: 0.000881976151 xtb: 6.5.1 (b24c23e)
Si          -0.20618870011869        1.65290982478255        1.08447742559843
O            0.49376277770381        2.62451288850206       -0.01344244741730
C            0.34789113889399        2.64641334568521       -1.41867816535635
C            1.09282531546839        1.50180192205070       -2.05523910348062
H           -0.71682047243188        2.56513466208119       -1.66333745926418
C            2.41427510706297        1.25236528478111       -1.70959896812328
C            0.46618341242278        0.67431832608101       -2.97738768278487
C            3.10163252427981        0.19805099272457       -2.28549475989671
H            2.89478809600098        1.88423728513519       -0.97647918493343
C            1.14749375453049       -0.39015591418587       -3.53960303903192
H           -0.56510133211415        0.86013421881746       -3.24093298770291
C            2.46795124573459       -0.62791001283201       -3.19745265171261
H            4.13396821960344        0.01697865741252       -2.02472074291376
H            0.64687667253564       -1.03448053324322       -4.24816735131082
H            3.00465878834883       -1.45396855835426       -3.64114660405480
C            0.88450244287075        3.99871629997285       -1.92020777056982
C           -0.01397281726460        5.07194310293054       -1.55338053192450
H            0.99097785805626        3.95971253432915       -3.00810663881280
H            1.86353944407740        4.17571851917236       -1.47003887311785
C           -0.78832172111309        5.92898455789583       -1.24231606652309
H           -1.44683837655354        6.69554351134502       -0.96187102933694
Cl           0.64692128995424        2.79431130698984        2.63257274952567
Cl          -2.13780855776424        1.77546677795680        1.83201864616500
O           -0.81005628356398        0.59896888399333       -0.34591743981333
O            0.50806510270913        0.22967979538470        1.72991042361202
C           -0.97768899932980       -1.62958146828177        0.29839567106280
C            0.45747678709412       -1.67442448862948        0.30634016158290
C            2.52490805915350       -0.63386905021129        0.99873911252973
C           -2.91656546713531       -0.32726101761760       -0.24662701585461
C           -3.76692664459698       -1.38292789231359        0.05616111142880
C           -1.81526004294092       -2.71160272185514        0.64682961126324
C           -3.17831760564499       -2.57227741519322        0.53160241739353
C            1.20673862554472       -2.64750407125639       -0.38509808171326
C            2.57991342467780       -2.61734725338697       -0.33358117623781
C            3.28019609404440       -1.61445284527283        0.37948513096075
H           -3.82278781846016       -3.37610327252514        0.85286118823020
H            3.14554955981216       -3.33423777975645       -0.90741008547743
C            4.74284696810795       -1.63397234392513        0.43024433843994
C            3.06676043824564        0.42949221812595        1.74864855714466
N           -1.58476066991457       -0.46102991984476       -0.09068615021881
N            1.16866784349813       -0.69357466827733        0.97241373257552
C           -3.34942731123866        0.88724276841761       -0.82257276129572
C           -5.21934617539569       -1.25657714776679       -0.06431330100463
C           -5.87029973579444       -0.10001850059661        0.36476912129095
C           -5.97661205350889       -2.30876227646785       -0.57862510605961
C           -7.98888839135093       -1.04502768081738       -0.25598154455724
C           -7.35030786126126       -2.19965476451942       -0.67788211703547
C           -7.24492135854327       -0.00004554954856        0.26813562324624
H           -5.29511828581534        0.70348064262908        0.79848478325621
H           -7.74013704405786        0.89652093594337        0.60994591295807
H           -9.06289844007087       -0.96258164812266       -0.33131858650839
H           -7.92561159376801       -3.01780697692512       -1.08616813178562
H           -5.48094865330546       -3.20517514504896       -0.92320542069478
C            5.40791998777985       -2.85618303028690        0.54703223241570
C            5.50364206286897       -0.46761183129860        0.34545423607491
C            7.53221095723229       -1.74397584584812        0.49727497665947
C            6.88374590677277       -0.52589519716081        0.37707253405922
C            6.78755137539904       -2.90868346440900        0.58452609223675
H            4.83558212407219       -3.76793521729956        0.63690085218524
H            7.28489051378716       -3.86236085101528        0.68419797728736
H            8.61068436679641       -1.78559643358531        0.52335733258240
H            7.45771121377055        0.38600452073285        0.30388352887386
H            5.01108573766328        0.48571219358340        0.23941028737805
C           -3.62609926999181        1.90629642213444       -1.39551992448470
H           -3.90255368368783        2.80637880798163       -1.85826843616892
C            3.42314262193523        1.35826607611403        2.42305880876517
H            3.73777110476429        2.17441366350230        3.00217415972512
C            0.54403488084505       -3.64980586428707       -1.28136838207656
H            0.58420421139481       -4.64645045079177       -0.84493495987319
H           -0.49246770786466       -3.39162739979999       -1.47435021420729
H            1.07612798847722       -3.68411587080060       -2.23008154732709
C           -1.25642126679352       -3.95903289013854        1.26109880121901
H           -1.81046299942634       -4.18882728634973        2.16958856753785
H           -1.36640922687019       -4.80726601318097        0.58735695568041
H           -0.20736447629774       -3.84214838416132        1.51489537972026
