75
 energy: -124.908090069291 gnorm: 0.000626516283 xtb: 6.5.1 (b24c23e)
Si           0.00025741099413        0.99269838252572        1.35258718920927
O            0.68616010532836        2.19389849569182        0.50953082490354
C            0.55453671900999        2.59938044074040       -0.82992983876588
C           -0.69239706994130        3.41951866429289       -1.04170381112577
H            0.52097669487676        1.71547493292050       -1.47657511770161
C           -1.26120040767672        4.12876898846064        0.00599297686845
C           -1.25966993171380        3.50102850510656       -2.30709880758256
C           -2.38785014682755        4.90393133520919       -0.20670619563172
H           -0.82062844300580        4.06319620324840        0.98886690077629
C           -2.37890029221015        4.28485844042270       -2.52210370204739
H           -0.82281927480517        2.94514057746875       -3.12480275420799
C           -2.94656160287203        4.98755506877452       -1.47096583169432
H           -2.82784423655339        5.44657207174480        0.61672350152981
H           -2.81331166194400        4.34283854183460       -3.51006665601034
H           -3.82367072476688        5.59647828527699       -1.63816608181435
C            1.79935177824660        3.44081133144019       -1.17677540269567
C            2.98402482782862        2.61384356972686       -1.24820606704573
H            1.63882242828546        3.94143873151328       -2.13524255322093
H            1.92755731836451        4.19419984848766       -0.39615366315418
C            3.94125501794821        1.89760951699261       -1.30119154706111
H            4.79859466921046        1.29462296788058       -1.34712751790186
Cl          -1.92632853350650        0.85054258352471        2.11646966812997
Cl           0.78742127639340        1.80297434556158        3.13614377229853
O           -0.59182509603877        0.23149821215326       -0.27481097981117
O            0.84532785423375       -0.46798730636463        1.64547729681268
C           -0.59079440327537       -2.08985528069254       -0.06273459444794
C            0.84295905041489       -2.02952964653187       -0.14239981064285
C            2.85229874717185       -0.88026150004246        0.55305895454870
C           -2.63296114902969       -0.85259216393834       -0.26894060495773
C           -3.39323248502439       -2.00770276888080       -0.13322360282859
C           -1.33393680510480       -3.27265786801190        0.12657102723585
C           -2.70787447128730       -3.21690251619735        0.09478526026453
C            1.60460307786045       -2.77077153386367       -1.06335762096847
C            2.96461568634561       -2.56476449279739       -1.14478181510636
C            3.62079477716790       -1.60936799438450       -0.33626501502193
H           -3.28127114823025       -4.10964771420648        0.29154626197755
H            3.54276654718257       -3.12117871831918       -1.86553596546412
C            5.06078164970399       -1.37655547302812       -0.47973191358982
C            3.35756176004812        0.15162846234421        1.36682347921723
N           -1.28757413424657       -0.91203133310218       -0.20175353183006
N            1.52099852201008       -1.13129134886826        0.66237916695203
C           -3.18930967270961        0.40679505488331       -0.57842182914338
C           -4.85596877896720       -1.97226180519267       -0.17502345667855
C           -5.56481966567200       -0.97871820126651        0.49931527818574
C           -5.56076482417512       -2.95877339849342       -0.86378198035260
C           -7.63913533656785       -1.94614002367955       -0.22801790767286
C           -6.94197642169806       -2.94091189750838       -0.89371573365308
C           -6.94622953293503       -0.97040278018008        0.47043372612572
H           -5.02717694141152       -0.23345789347880        1.06486453189157
H           -7.48637407182206       -0.20084235591122        1.00140725230716
H           -8.71865640958555       -1.93488202159139       -0.25006279607782
H           -7.47708998247796       -3.70512602152526       -1.43838804697654
H           -5.02001552921063       -3.72806647465668       -1.39657858038788
C            5.88320465844796       -1.22364557482893        0.63540917656832
C            5.63341715148739       -1.31720606021176       -1.75097296090779
C            7.79729058804181       -0.94092238541937       -0.78690285689862
C            6.98910735265042       -1.09553395395405       -1.90140314150536
C            7.23955547628903       -1.00894994743660        0.47942307302888
H            5.45737204100964       -1.28966595282792        1.62450149909062
H            7.86584118065551       -0.89591661855201        1.35161735764253
H            8.85642603557356       -0.76867432439757       -0.90564260697413
H            7.41633701773237       -1.03913111641243       -2.89199265152624
H            5.00434932168484       -1.41329657847015       -2.62435790924333
C           -3.60140559156488        1.48202901520388       -0.91900682794660
H           -3.97308089101317        2.42832712956749       -1.17592708821514
C            3.69691653171650        1.05130457059026        2.08737433293819
H            3.99899079173550        1.83759484566111        2.71208155129437
C           -0.65937960595610       -4.56095098069044        0.48892957758943
H           -0.77547108205860       -5.29831722180252       -0.30373464526959
H            0.39792747999650       -4.41464984731264        0.68685599642846
H           -1.12660042813965       -4.96720268117684        1.38452358064269
C            0.96110689961252       -3.70251923879007       -2.04596593459465
H            1.41606076149504       -3.56609312461024       -3.02509522687107
H            1.12094517708374       -4.73862265865964       -1.75202130685118
H           -0.10635359981396       -3.52337132098255       -2.12973172438010
