75
 energy: -124.910401224501 gnorm: 0.000512574759 xtb: 6.5.1 (b24c23e)
Si           0.10169460818744        1.35412246352389       -0.13709235410710
O           -1.43772188091280        1.04926081568937        0.30177247825999
C           -2.32151492130924        1.76640695043004        1.12334375943629
C           -2.88046038875140        2.98877782426500        0.44112413303073
H           -1.79082260891333        2.08105795099046        2.03078925784232
C           -2.89251072347900        3.09757480239798       -0.94041792325773
C           -3.40382452073424        4.02088766276459        1.20964706601179
C           -3.41558538132709        4.22556463377056       -1.54789733563223
H           -2.47210987717309        2.30100575562636       -1.53427334162588
C           -3.93397645441472        5.14355759968247        0.60189377799941
H           -3.38116612006871        3.94740290547424        2.28756890331853
C           -3.94095727073335        5.24875907541442       -0.77917665918869
H           -3.40664131364002        4.30687794054846       -2.62500259256775
H           -4.33421749588411        5.94360846622927        1.20740446636978
H           -4.34780055376239        6.13005006141704       -1.25309503205016
C           -3.45779236626566        0.79792693019840        1.51244878370534
C           -2.94496165236287       -0.25901139398604        2.35515270930393
H           -4.23310577124638        1.35211550891013        2.04647312449578
H           -3.88612750184782        0.37329655643830        0.60016762539868
C           -2.45899809809199       -1.10234603617322        3.05164634241919
H           -2.05815706652955       -1.84237253090040        3.67754461012503
Cl           0.69318614761366        2.28693472755096       -1.86627336916473
Cl           0.39623068219902        3.08536055079021        1.10040843005808
O            1.20524148057178        0.53295570274745        0.88463719406994
O            0.03016490595936       -0.14765723790024       -1.20009605296016
C            1.74075928353946       -1.67537929106009        0.19831101009543
C            0.33995614326491       -1.99867498124583        0.19177177922771
C           -1.78724142047153       -1.52591890590052       -0.79887571741772
C            3.39033761063056        0.08977771951974        0.25343248433917
C            4.40994355087151       -0.80054716287383       -0.03079632395882
C            2.75926991487021       -2.59355850185740       -0.11280208414577
C            4.06486997467246       -2.15922320643380       -0.20237429714018
C           -0.25017813923799       -3.03243277979610        0.94646692020275
C           -1.59097503702535       -3.29898545456428        0.79349659695530
C           -2.38351634540917       -2.58170922908476       -0.12343245468452
H            4.84166669429837       -2.86425572447315       -0.45324382795242
H           -2.05400623052959       -4.07343113938703        1.38515200242205
C           -3.80337787844500       -2.89906266521554       -0.30354748065666
C           -2.49790062377834       -0.69347258340065       -1.68919334751544
N            2.12088967917967       -0.36606889167039        0.42684062703598
N           -0.48276504738184       -1.24403568692861       -0.61325633563461
C            3.56456285528747        1.48366654404681        0.35170779963289
C            5.79802549331134       -0.35492769106173       -0.18552379422603
C            6.58239955064744       -0.85294251174694       -1.22508266048960
C            6.36518057738304        0.54754167550692        0.71280777203252
C            8.45046547671264        0.44924024399339       -0.47175312488726
C            7.68128954945574        0.94319864330037        0.56891950022092
C            7.89582355603104       -0.44891295849210       -1.36855726276587
H            6.14967593515198       -1.53811408774382       -1.93939593010700
H            8.48924534292155       -0.83446446360729       -2.18458900492427
H            9.47774886965563        0.76216777839701       -0.58354496258202
H            8.11018308489547        1.63888495066477        1.27476730407352
H            5.77575884780230        0.92393462631781        1.53470576661587
C           -4.36019048230018       -3.01917618890799       -1.57558678875588
C           -4.61753679809032       -3.09544438394191        0.81103662415406
C           -6.50417123789473       -3.50694552560184       -0.61290704716594
C           -5.95820669302178       -3.39086287824859        0.65498239777045
C           -5.70007169479944       -3.32277737239890       -1.72571668031355
H           -3.73459295273039       -2.89126423663618       -2.44597757006426
H           -6.11899115538349       -3.41855228866213       -2.71655593205476
H           -7.55162842121009       -3.73969361506188       -0.73310596510930
H           -6.58109987021103       -3.52828848447075        1.52657152370472
H           -4.20025757057780       -2.97567472921010        1.79957687358055
C            3.60690716626316        2.68294040304089        0.41845501009491
H            3.65345573769853        3.72920551804066        0.47748848059873
C           -3.07488141920401        0.01659798449937       -2.46752483497312
H           -3.59346375605960        0.63110537876788       -3.14174134127574
C            0.53076339717877       -3.76830444190853        1.99303570453761
H            0.68945993164666       -4.80566093231100        1.70285296618817
H            1.49306069135821       -3.29915866968094        2.17341455371535
H           -0.03244455338987       -3.77490402180605        2.92434010469368
C            2.45386477682785       -4.01854412036421       -0.46442120693594
H            3.04408208183999       -4.31096496217047       -1.33059979752307
H            2.72496492237553       -4.68181625932105        0.35555106361754
H            1.40273877429618       -4.15805812474814       -0.69671609353993
