75
 energy: -124.908073881472 gnorm: 0.000934594562 xtb: 6.5.1 (b24c23e)
Si          -0.20109144870230        0.90630621051529        1.41599656710609
O            0.11234135703194        2.27142700773101        0.60402423615900
C           -0.22506066701789        2.69544822636694       -0.69313769318204
C           -1.63544874850444        3.22661834295449       -0.75100375784986
H           -0.12741661096994        1.85358996667225       -1.38769969375240
C           -2.27392192725826        3.67868828145654        0.39472890970908
C           -2.29754183244207        3.29439681010274       -1.97083514062897
C           -3.56279495086400        4.17843738086886        0.32504705469626
H           -1.75861083421474        3.63025703345036        1.34134510335497
C           -3.58062997952581        3.80680461512383       -2.04232801245209
H           -1.80645156902157        2.93831728235065       -2.86561951996601
C           -4.21815951512288        4.24678793811954       -0.89264645054666
H           -4.05379340094389        4.51912979448626        1.22402277856977
H           -4.08773197809061        3.85639659156529       -2.99561488781467
H           -5.22294528054780        4.64079636680528       -0.94742946632356
C            0.77338087527018        3.80269805966530       -1.08459248409011
C            2.09957993727871        3.26146863175717       -1.28675212790255
H            0.42856018418156        4.29194398098272       -1.99917447352111
H            0.80087611237159        4.53597118629487       -0.27495452509571
C            3.18197489929529        2.77702978686808       -1.44761430785132
H            4.14352078989059        2.37949049343055       -1.58093909099914
Cl          -2.00774445670148        0.26296409605287        2.21366210198962
Cl           0.41900229992196        1.82875199193001        3.21178872479548
O           -0.62442469732769        0.05907835512102       -0.22293339230919
O            1.00409128697680       -0.28860852448445        1.63572886829310
C           -0.05255274809496       -2.19654184217655       -0.05888927294027
C            1.32072914625836       -1.79002866227704       -0.17592683148521
C            2.99621594271130       -0.16467401157180        0.45234558360266
C           -2.33793152774115       -1.48921308262753       -0.20916983239971
C           -2.79314859007376       -2.79574853309148       -0.08330451654420
C           -0.48439765263379       -3.52460206580315        0.13500275639609
C           -1.83104146735764       -3.80373038397491        0.12357656757051
C            2.21341724367159       -2.31970287682280       -1.12521899322157
C            3.47187488005067       -1.77359148528055       -1.25552076017839
C            3.89005484891716       -0.67465342275636       -0.47167040648376
H           -2.16768969004173       -4.80985296542690        0.32093238313246
H            4.14673682697805       -2.16873116415738       -1.99837536243734
C            5.21146361790643       -0.07333588438901       -0.67512924020992
C            3.24934083516070        0.96652050012094        1.25164413728660
N           -1.01706929503051       -1.22118296704153       -0.16519939124928
N            1.78060440451085       -0.75090976368841        0.61298267923261
C           -3.18747620942896       -0.39531911743833       -0.48105480247608
C           -4.22071707158231       -3.11792216918759       -0.11447403800998
C           -5.14556356809894       -2.33701748800343        0.57748713919943
C           -4.66852342553442       -4.23724155589081       -0.81521956871245
C           -6.92638901810563       -3.77158843866702       -0.15636475221963
C           -6.01241118789856       -4.55687246012958       -0.83955927496489
C           -6.48741458305354       -2.66591105853493        0.55402088866873
H           -4.80199215976368       -1.49086538352221        1.15212100267911
H           -7.19522032869633       -2.05877910490741        1.09834118661846
H           -7.97614976391321       -4.02389765805533       -0.17418754406316
H           -6.34879942242271       -5.42099388854721       -1.39371263888190
H           -3.96024763927604       -4.84377402257819       -1.36163067161473
C            6.01129134885522        0.29796224109662        0.40464008476095
C            5.69301948318322        0.12805916407300       -1.96947567065174
C            7.71864593124902        1.07112537057103       -1.09684002691395
C            6.93358205617897        0.70083630097332       -2.17666589827379
C            7.25410102831686        0.86399625816637        0.19188327875382
H            5.66142862966818        0.12663656041726        1.41080200663749
H            7.86500098966978        1.14381519409646        1.03716630503139
H            8.68781144967444        1.51817729084672       -1.25983665656240
H            7.28774530471079        0.86291473043010       -3.18439078315961
H            5.07557627291702       -0.13776710723120       -2.81585174272554
C           -3.84617409561533        0.56125997199650       -0.78613456821807
H           -4.44198703665417        1.39429914634090       -1.01175982060357
C            3.37199355153150        1.92638025626955        1.96434609991840
H            3.48627176948969        2.76598702499406        2.58237036195787
C            0.48836747801026       -4.61057818566393        0.48229044426888
H            0.53930838151527       -5.35761198103269       -0.30811473831255
H            1.48223938258606       -4.21186608326321        0.66060023221535
H            0.14985539724794       -5.11380808190180        1.38654966239618
C            1.79577683872876       -3.39298779933896       -2.08493169444925
H            2.18368408784457       -3.16461857816701       -3.07557053596569
H            2.20832997994477       -4.35507329863112       -1.78521580203353
H            0.71520852858351       -3.47971234485090       -2.14483628471540
