75
 energy: -124.907451682732 gnorm: 0.000967880452 xtb: 6.5.1 (b24c23e)
Si          -0.47001858266278        0.88110176749123        0.77356014733935
O            0.05133777399399        1.91603723725071       -0.35855536509608
C            0.18702917748559        3.31213997790518       -0.29876129050107
C           -1.15492047931448        3.99289077444348       -0.20717000500530
H            0.78728687078709        3.57435785801711        0.58182548745575
C           -2.27424042916817        3.41603322003639       -0.79026626882989
C           -1.27857965031925        5.20662454415458        0.45490216891939
C           -3.50481478948827        4.04188049043282       -0.70176951495815
H           -2.17610703294012        2.46485206038088       -1.29224327486022
C           -2.50781015009804        5.83544208986791        0.53376072675872
H           -0.41028221476282        5.65018217416455        0.92006050404801
C           -3.62390193550462        5.25335314084665       -0.04325966000266
H           -4.37628580129438        3.58307498890478       -1.14547786220844
H           -2.59724447213162        6.77705836899738        1.05536568420664
H           -4.58556051427761        5.74044545597381        0.02648478629752
C            0.92475100416394        3.75571279241263       -1.57632378617780
C            2.28309945987657        3.25757098324948       -1.59022684547254
H            0.93023757151937        4.84778208365401       -1.62249079741624
H            0.38194054784966        3.36404893668714       -2.43992041839617
C            3.40261565063589        2.83550582334977       -1.55950843429870
H            4.38467456493459        2.46661491452751       -1.54604428358384
Cl          -2.38903648192751        0.47035898974922        1.46845973885543
Cl          -0.07688876829918        2.13440671904868        2.49369967346690
O           -0.73431857109450       -0.20851905979941       -0.68323436824173
O            0.66022396672476       -0.25050999814767        1.38786491489438
C           -0.15809773136482       -2.39494173090811       -0.10370320785303
C            1.21266742782538       -1.96231562007881       -0.14967952798782
C            2.77774054934947       -0.21882097642186        0.43180094929941
C           -2.43069202904968       -1.77563713278672       -0.54848258281017
C           -2.88232464293144       -3.05003422775450       -0.23022432115894
C           -0.58526083511432       -3.69060833415033        0.24617985778098
C           -1.92611026437418       -3.99530839314579        0.19225235250481
C            2.20199727081804       -2.56914262972182       -0.94198707544525
C            3.45144087224565       -1.99271705868706       -1.02826234967753
C            3.76563709560548       -0.79765388953057       -0.34453150493376
H           -2.26473164975086       -4.96687867671254        0.51734628969542
H            4.20150874058759       -2.44283855565940       -1.65938284900041
C            5.08182375699974       -0.17134851575774       -0.50201874872076
C            2.94180101042886        0.99352436371685        1.12854142085490
N           -1.12064734100845       -1.47223952627902       -0.44377714787630
N            1.56646303378486       -0.82134249166515        0.54419395847884
C           -3.26599211126977       -0.78052392078431       -1.10048005866701
C           -4.30530869753249       -3.39022921583657       -0.27605398087592
C           -5.25964737395011       -2.50726964763674        0.22886681816333
C           -4.72148982347128       -4.61950099727739       -0.78552834536307
C           -7.00565095344556       -4.06588940762179       -0.30881491591599
C           -6.06289476064156       -4.95061383702552       -0.80612251290915
C           -6.59866284375023       -2.84754015329213        0.21097722926099
H           -4.94110045922903       -1.56971755026091        0.65803865354884
H           -7.32922030291690       -2.16060166431134        0.61142201625778
H           -8.05317007316182       -4.32782767684992       -0.32207537932289
H           -6.37486904011715       -5.90222342644752       -1.21128022191452
H           -3.99044254441613       -5.30644094080328       -1.18755870786024
C            5.78307604916456        0.32753341696123        0.59446856719949
C            5.65552393321444       -0.07282901078481       -1.76987948706668
C            7.57709855267395        1.02358204101142       -0.84190615818815
C            6.89025948829180        0.52518817388009       -1.93721949394384
C            7.02062836463667        0.91871452969552        0.42252434185078
H            5.36111340488612        0.23642553390356        1.58328071898704
H            7.55500023723161        1.29869469149499        1.28051802419489
H            8.54130722032548        1.49116969270151       -0.97391245803907
H            7.31638014090022        0.60776002944193       -2.92648618778816
H            5.11255448708155       -0.43718628332205       -2.62994497057323
C           -3.92034861596368        0.05193511366410       -1.66734282723285
H           -4.51650540096897        0.78430947434323       -2.12362470997153
C            3.01006513969864        2.01702283817546        1.75392266930266
H            3.07948201078128        2.91025498845564        2.29923293152286
C            0.37674456352536       -4.70009011279760        0.79517474999368
H            0.51243684753620       -5.52620012711576        0.09896271843802
H            1.34266683694245       -4.25225998814290        1.00743927110491
H           -0.02581870848792       -5.11288746420695        1.71847454635496
C            1.90132098041111       -3.76635029073149       -1.79207067886442
H            2.37287992818305       -3.64799388653408       -2.76538389147525
H            2.30750353814587       -4.66898273577797       -1.33807241014427
H            0.83307400695513       -3.89669712422661       -1.93514703040595
