75
 energy: -124.902997063273 gnorm: 0.000804796106 xtb: 6.5.1 (b24c23e)
Si          -0.03631041174156        1.00583521915413        0.12811991697074
O           -0.50630397881443        2.55078116071496        0.08854690000379
C           -1.57766952434809        3.25800668426861        0.65515430202625
C           -2.71072015242583        3.37780416430624       -0.33206662758433
H           -1.93127233499577        2.74011388162472        1.55403041788087
C           -2.46608266613137        3.32950326359706       -1.69730854353785
C           -4.01089147801988        3.56068111579130        0.12200190811210
C           -3.50884475783051        3.45801245668798       -2.59820325561214
H           -1.45654559112281        3.17788590919396       -2.04581733477239
C           -5.05212578626200        3.69532497569442       -0.77949697785241
H           -4.20613626232644        3.58879122924944        1.18449017358922
C           -4.80329921087489        3.64400934343105       -2.14215929738260
H           -3.30971857064927        3.41388307131974       -3.65895674636862
H           -6.06109401354157        3.83535260239404       -0.41856360035947
H           -5.61770193231364        3.74563800703737       -2.84533231656020
C           -1.05410513382304        4.65400894731701        1.04656324967811
C           -0.11633802027679        4.55043697216606        2.14324814482590
H           -1.89734856887363        5.28676217356121        1.33601274733226
H           -0.55769472403443        5.09248578097420        0.17727933245964
C            0.64671347821954        4.40753904975091        3.05354522738917
H            1.31090004741904        4.30506580030130        3.85890883848516
Cl          -1.44408582024723        0.41040458946921        1.70505835548717
Cl           1.45482305311370        1.61485465369680       -1.31376626387211
O           -0.56606517796396       -0.16740841052819       -0.99998787933608
O            1.07409220661257        0.04150119527555        1.02848689105111
C            0.17018083172408       -2.24684644874913       -0.16342150779018
C            1.54259120756581       -1.81762743692925       -0.32236369667629
C            3.23284399960958       -0.18304040727384        0.20766411077831
C           -2.17645640756431       -1.72341085314430       -0.38913926644972
C           -2.54213674007714       -2.96179301942764        0.10946966439254
C           -0.17922285739245       -3.49854740345302        0.36770483874347
C           -1.51032284574080       -3.83875684129941        0.50017620248058
C            2.48470410401178       -2.52203963319111       -1.08901184481515
C            3.77898424604984       -2.05062963369357       -1.18041025757676
C            4.18163719425291       -0.86618265784156       -0.53479542016147
H           -1.77277651321421       -4.78956618220153        0.93681854782782
H            4.48526947212615       -2.56023715429557       -1.81746175385523
C            5.54401237963493       -0.34863634466443       -0.69099004891589
C            3.50458745258699        0.99088310215109        0.93782172442510
N           -0.86496057748530       -1.41365430093748       -0.54123986007876
N            1.98036955766457       -0.68205421433095        0.32410761141781
C           -3.09770395357754       -0.71648613375240       -0.73894953151888
C           -3.94909981735848       -3.33565481173588        0.28300865998216
C           -4.36321309835456       -3.94773455871962        1.46506768843496
C           -4.88713078324962       -3.10641545643997       -0.72158955054040
C           -6.61088289686395       -4.07688497524981        0.63818100444366
C           -6.20654392755027       -3.47694799513742       -0.54280071839839
C           -5.68481457296338       -4.30963368837987        1.64159521253546
H           -3.64943090916868       -4.11011228590060        2.25904773012017
H           -5.99498061426211       -4.77261382271163        2.56672871641063
H           -7.64319526852510       -4.36163435400220        0.77654105906243
H           -6.92354157974904       -3.29825775892782       -1.33043608638660
H           -4.57517601809678       -2.65230022357133       -1.64968404414721
C            6.63869404401669       -1.20267114446982       -0.57537817657956
C            5.75747748317799        0.99656618641198       -0.98626965592747
C            8.12967761719257        0.62378032309787       -1.01303710522818
C            7.04430504038740        1.47471828684121       -1.14631254249933
C            7.92325588417262       -0.71623631613712       -0.72955176736883
H            6.48030490708725       -2.24570576264136       -0.34085446635075
H            8.76632462392642       -1.38397389025181       -0.62765928202938
H            9.13390056805640        1.00196513401792       -1.13452987406893
H            7.20183458556757        2.51694885966004       -1.38076527983597
H            4.90872778018111        1.65017782960916       -1.11516360452773
C           -3.82943092958373        0.18446477257462       -1.04991112808730
H           -4.48495945788682        0.96269332582439       -1.30535124151599
C            3.67339252342030        1.96964551940970        1.61358390079103
H            3.84389897419230        2.84475190003606        2.16546348734613
C            0.85739586374954       -4.44134261175052        0.90032607687343
H            0.94678105903757       -5.31360558571506        0.25467036014966
H            1.82904901602493       -3.96539741270972        0.98580705300087
H            0.55319531874549       -4.79151329827608        1.88478696643923
C            2.09108328512440       -3.70905921040268       -1.91564973101423
H            2.45457403509659       -3.57280456135145       -2.93241852041729
H            2.54555803859576       -4.61755866882383       -1.52307310692875
H            1.01387600693383       -3.83810601760208       -1.94713610800462
