75
 energy: -124.906832349963 gnorm: 0.000785502001 xtb: 6.5.1 (b24c23e)
Si           0.23651545443319       -1.16828989046688        1.35407872313880
O           -0.70329523467476       -2.25241042348087        0.61437593952133
C           -0.82327348148095       -2.65922095698184       -0.73137270867227
C           -2.21898203998055       -2.34745834078615       -1.20610293661127
H           -0.08771409497215       -2.12616244391322       -1.33876184248979
C           -3.30895876023103       -2.72898778583516       -0.43319442631276
C           -2.43529308536345       -1.67600284624046       -2.40096966852714
C           -4.59645827997588       -2.46206175629169       -0.86147451070566
H           -3.13507047385708       -3.22172100338971        0.51101498339520
C           -3.72442716880993       -1.40776725018954       -2.82894618341496
H           -1.58931783929689       -1.36311718496665       -2.99667143471538
C           -4.80713520101288       -1.80686054025228       -2.06432692787440
H           -5.43867126272265       -2.76471044782389       -0.25630926169457
H           -3.88456958034594       -0.88458453121751       -3.76045109419155
H           -5.81208848382278       -1.59817434481048       -2.40069352697806
C           -0.54263740128043       -4.17196951910921       -0.80804218968163
C            0.79991793227680       -4.45925323608291       -0.35148038363274
H           -0.67501925387872       -4.50692989186350       -1.84046784141860
H           -1.25566900057790       -4.69666762940709       -0.16780764953692
C            1.90923723344611       -4.64594575835301        0.05559638292119
H            2.87520508647330       -4.82200536982804        0.42429377961700
Cl          -0.47011673069123       -1.80262048285816        3.23169926269604
Cl           2.23023063968793       -1.43594634135448        1.83063213555618
O            0.74860643200413       -0.45138731941462       -0.35991643545174
O           -0.31017026617813        0.41074107208628        1.71715789647562
C            1.30022808616280        1.79432712915850       -0.04751543160966
C           -0.10836674126478        2.06081619579851        0.02274833702451
C           -2.25878319734852        1.23179972263160        0.75571725373238
C            2.96220386937131        0.15117825877140       -0.57237369459146
C            3.98569870242628        1.08167021180552       -0.44212402615053
C            2.31932774038255        2.75096805952152        0.14343554172743
C            3.63157614546262        2.38514385574787       -0.04561452731719
C           -0.76524164970997        3.04229678860665       -0.74237979714931
C           -2.14072728148364        3.11331435619144       -0.71994515552639
C           -2.92361363706754        2.19141470808390        0.01352718920711
H            4.41644865190048        3.09862913930511        0.15315137461832
H           -2.64368657658563        3.83440990857171       -1.34487119603870
C           -4.38536081579185        2.26093938791540       -0.03472551189545
C           -2.90004748105717        0.27446151027860        1.56543263240351
N            1.68365307479948        0.50494911221390       -0.33408111786384
N           -0.90041716931548        1.22975257130780        0.79567387166451
C            3.16022762154616       -1.15935391075936       -1.05777651376924
C            5.38656331969133        0.70761418522543       -0.63925482627187
C            5.87788367106655       -0.48885219880462       -0.11765744125816
C            6.25777066023713        1.56233821362541       -1.31304428547995
C            8.06586837093271        0.02670458147026       -0.96195670663347
C            7.58636378846919        1.21987524937185       -1.47689920264456
C            7.20879594436107       -0.82214560087185       -0.27999249962795
H            5.21669784670207       -1.13494957119994        0.43902643483473
H            7.58244899253093       -1.74660129645934        0.13447016932412
H            9.10538191367736       -0.23741472030212       -1.08725817997316
H            8.25102290515896        1.88586907682345       -2.00768921983822
H            5.88407841498717        2.48768834208024       -1.72798864834649
C           -5.02341437084762        3.50056815664719        0.01701949332166
C           -5.16110270066411        1.10920938002893       -0.15190249039631
C           -7.16455499810000        2.43283336610209       -0.15006643592498
C           -6.53865235676964        1.19862104030549       -0.21061249897504
C           -6.40135839502589        3.58323499405906       -0.03507234498433
H           -4.43487102774831        4.40006807574651        0.12556034973750
H           -6.88290850037738        4.54883894306993        0.01585874929452
H           -8.24139574578974        2.49936384311585       -0.19342680801172
H           -7.12707939826414        0.29830761762214       -0.30713211066972
H           -4.67930272679764        0.14694280196940       -0.22075446900936
C            3.23420590364108       -2.24834277020557       -1.55872555432485
H            3.33368844956361       -3.21122522707208       -1.96190505714336
C           -3.34750593460184       -0.56296423320057        2.30209068964132
H           -3.75161327797425       -1.28341600502106        2.94845499238356
C           -0.01712409832283        3.93754651211661       -1.68368863269971
H            0.08609862640000        4.93647294283305       -1.26296019118471
H            0.97157983664625        3.54790487586572       -1.90583045160702
H           -0.57402592009128        4.02963122071655       -2.61396903237587
C            2.00792375735644        4.11532718570454        0.67986413545533
H            2.64958678023213        4.31467123548051        1.53652832020365
H            2.20846431440365        4.88417317902368       -0.06460396116844
H            0.97288647371935        4.18905482181827        0.99882940447517
