75
 energy: -124.901875512358 gnorm: 0.000869797253 xtb: 6.5.1 (b24c23e)
Si          -0.41359617155258        0.85867280791429        0.50729842637730
O           -0.79961177645954        2.23488392748968        1.26995991064554
C           -0.60087649970222        3.58384802025918        0.93341751255639
C           -1.62317185822969        4.02343600540453       -0.08430419808244
H            0.40969295288940        3.71692394280625        0.52914346932695
C           -2.90300758563977        3.48609268515195       -0.05370388351582
C           -1.30402732835323        4.97220072547444       -1.04534116610854
C           -3.85248460610434        3.89702356625910       -0.97161565704279
H           -3.14240147517587        2.73525936811758        0.68461929965472
C           -2.25534346297928        5.38124341586025       -1.96287067038872
H           -0.30441621985872        5.38062013289871       -1.07983661230796
C           -3.53210433914692        4.84680979265235       -1.92639247903653
H           -4.84957884928547        3.48151629790112       -0.93611181055828
H           -1.99827838448650        6.11627176195879       -2.71155228133603
H           -4.27411248448570        5.16738767764039       -2.64333008022169
C           -0.74905404863949        4.41301967372522        2.22285887302514
C            0.32328510085465        4.13298191753219        3.15211208205797
H           -0.74896405502612        5.47514161571925        1.96278807916420
H           -1.70438223084365        4.15882289323600        2.68840441870295
C            1.21948242567435        3.88521086945603        3.90529433098370
H            1.99014043801527        3.67156492756582        4.58439572433918
Cl          -1.83267557368406       -0.08636493700471        1.82450257697284
Cl           0.78631363446681        1.83541869809605       -1.04007219920178
O           -0.79060632576391       -0.20590603682468       -0.80931485060566
O            0.84168442982263       -0.05739236443686        1.21246599798178
C            0.00525599416081       -2.31185541871104       -0.14918927468868
C            1.35660316259085       -1.81349625733415       -0.27172192107306
C            2.93987693871307       -0.06174220491954        0.23339853653873
C           -2.34573918127801       -1.89845589395332       -0.49283511923787
C           -2.67085006471300       -3.18868915138053       -0.11074642998054
C           -0.30666987656544       -3.60444451939697        0.30313130735032
C           -1.62125803843942       -4.02244849472754        0.32228346605981
C            2.33608672958863       -2.44679608450507       -1.05692180731704
C            3.59252387440868       -1.88659163583256       -1.16489268689635
C            3.91964586102975       -0.66946010775661       -0.53320346020714
H           -1.85820545572330       -5.00720989377002        0.69363999044875
H            4.32366801212799       -2.34698042961258       -1.81104721553940
C            5.24079519150487       -0.06187406955147       -0.71283452612449
C            3.12555676908015        1.13767728292367        0.94945820074655
N           -1.05088277407548       -1.50624298994683       -0.52253436832851
N            1.73472564744810       -0.66065117205945        0.38542067999718
C           -3.29368251075972       -0.92113078983952       -0.85628332626774
C           -4.05945940274791       -3.65789346397729       -0.10109515306543
C           -4.54910577397735       -4.36441987020687        0.99595139583308
C           -4.90279586305546       -3.42654129065510       -1.18604124137158
C           -6.68458805183951       -4.58752834522401       -0.07363458675054
C           -6.20421567130119       -3.89140304370711       -1.17053275981624
C           -5.85357907352029       -4.81964093538755        1.01001569243585
H           -3.91095777496665       -4.52635345335079        1.85166151122513
H           -6.22521772634057       -5.35595540959894        1.87072100969970
H           -7.70273349215063       -4.94701369541628       -0.06283768074296
H           -6.84684866190994       -3.71183756990310       -2.01985411914654
H           -4.52874271622504       -2.89628954017811       -2.04874655712339
C            6.38768825893954       -0.85031629819526       -0.63484576033022
C            5.36989618373835        1.29873424082772       -0.98574159009215
C            7.75873010958867        1.06843715902425       -1.06893204865309
C            6.62237309640345        1.85548221588524       -1.16275356108576
C            7.63743277496864       -0.28610712029946       -0.80602297983149
H            6.29712763456241       -1.90432210101070       -0.41439192979022
H            8.52018154308227       -0.90444726880637       -0.73317432745073
H            8.73591079865358        1.50768334169329       -1.20395020095058
H            6.71270617026027        2.90947406190235       -1.37939381181745
H            4.48393226001494        1.90689155298442       -1.08188475471617
C           -4.03831928282182       -0.03636601430914       -1.18127708972435
H           -4.71093460250593        0.71957213634929       -1.45686139637336
C            3.20703891570068        2.14317212736770        1.60193074054167
H            3.27958581763673        3.04103318845683        2.13953148193733
C            0.74550743198619       -4.50734770500833        0.87277963548170
H            0.88657845031673       -5.38146487167229        0.23909766343905
H            1.69518579786131       -3.99494464281154        0.98817509276537
H            0.42081499902184       -4.85916291360820        1.85033693215995
C            2.01900371302056       -3.65731907091163       -1.88225319742564
H            2.41482677854123       -3.52156713460496       -2.88678286236097
H            2.49151321799803       -4.54261887182732       -1.45962780405452
H            0.94944115564035       -3.82918494832203       -1.94968560167936
