75
 energy: -124.908442665088 gnorm: 0.000851396300 xtb: 6.5.1 (b24c23e)
Si          -0.25186897681904        1.23499796448025        0.79495063822737
O            0.74470272685829        1.81071034399878       -0.34050367243392
C            1.59082713760091        2.92859545367629       -0.37354655145040
C            2.91374412512355        2.52575478597253       -0.97307387929992
H            1.73489692570076        3.30725963427420        0.64597626941046
C            2.95996243852830        1.55339382155893       -1.96335725299808
C            4.09201191118025        3.13463491695267       -0.56306662325965
C            4.16778857278001        1.19483856293624       -2.53539704567397
H            2.04101088611230        1.07547606856965       -2.26746209316012
C            5.29926147253246        2.77838632512588       -1.13810208543134
H            4.05951988927623        3.88917240635861        0.20975899802989
C            5.33963694301348        1.80943594995703       -2.12646667794125
H            4.19632507803700        0.43386025786908       -3.30214636261898
H            6.21170718379057        3.25667150708980       -0.81295593780651
H            6.28173036812331        1.53129223275234       -2.57591581684995
C            0.93346271609461        4.02888861520518       -1.23253468145261
C           -0.31321121080730        4.45602087552268       -0.63594190667241
H            1.62061522447947        4.87449759945015       -1.31705451571417
H            0.74038501919337        3.62177305521826       -2.22863252431765
C           -1.34601589291714        4.75855502144790       -0.11366180969212
H           -2.24431217231594        5.02896941591414        0.35515941673732
Cl           0.59666002456816        2.28300100948350        2.48439044944155
Cl          -2.17112829521077        1.78827575706207        1.35725263340133
O           -0.90231737021701        0.25763643262996       -0.62392273228972
O            0.19043652030388       -0.23764859865154        1.55360891513554
C           -1.51778687388815       -1.86007330772291        0.15052727492805
C           -0.11596002134559       -2.16535949621699        0.21694988468554
C            2.08171174889767       -1.30087119625200        0.72756183282922
C           -3.15151843686539       -0.25724397401489       -0.56998164589066
C           -4.19713971193877       -1.09838755625462       -0.21248329608058
C           -2.55743008076172       -2.72112185627142        0.55860187070915
C           -3.86508802847085       -2.33244230914106        0.38047667977912
C            0.48326443486598       -3.29361180000308       -0.37445104941680
C            1.85622264121996       -3.41114005077477       -0.37759477520341
C            2.69213001730619       -2.40092157577392        0.15063134780616
H           -4.66098619192398       -2.96434902896918        0.74357570396835
H            2.31430918434590       -4.25300667453346       -0.87277668324853
C            4.14997680672809       -2.51675509563795        0.06990649262563
C            2.78675252843159       -0.24065825154697        1.32986037419091
N           -1.87329486504616       -0.62914628879246       -0.35402950705248
N            0.72889744060067       -1.24360101407685        0.80688502396341
C           -3.33606719151482        0.96308382923319       -1.25564242668459
C           -5.59354956455223       -0.69204094707600       -0.37832660950629
C           -5.99647482396757        0.59947171021972       -0.03925001541323
C           -6.54586747149213       -1.60100930148972       -0.83666423704330
C           -8.25863224663084        0.06653668841538       -0.64284025853852
C           -7.86748725357181       -1.22069540109778       -0.97244151316170
C           -7.32040162251803        0.97125562572258       -0.17238188918028
H           -5.27090098815660        1.29464416880704        0.35398023780919
H           -7.62387013148381        1.97142758904840        0.09870332469748
H           -9.29221217227323        0.36126038845653       -0.74738871533268
H           -8.59571324093201       -1.93057851325970       -1.33677995679720
H           -6.24212058137481       -2.60190052039278       -1.10845843391599
C            4.76856679648287       -3.73799750298829        0.33732799142875
C            4.94044478344829       -1.42514145991817       -0.28605679182136
C            6.92119613903262       -2.76639295950488       -0.08342161771042
C            6.31396130154796       -1.55306871132379       -0.36237219994423
C            6.14312767245718       -3.85802984170204        0.26616923301938
H            4.16884305997689       -4.58802908964317        0.62901610444378
H            6.61064182712841       -4.80642966379398        0.48702714365252
H            7.99523229844003       -2.86270904571761       -0.13925732709572
H            6.91104637344355       -0.69847653063037       -0.64353550275914
H            4.47505885087730       -0.48183186604435       -0.52409918811527
C           -3.42273256069275        1.96686480839630       -1.90917005316657
H           -3.52122378744460        2.86346188737702       -2.44418546792303
C            3.30629323417397        0.69099417241050        1.88305175931981
H            3.77069305805669        1.50234152313776        2.35806369895012
C           -0.32514310290831       -4.31510506163208       -1.11591807779628
H           -0.43477677899138       -5.22205749555178       -0.52335580460557
H           -1.31190520755589       -3.93807118462924       -1.36599352643813
H            0.18955074510870       -4.58509570640415       -2.03584502242297
C           -2.26531683292027       -3.98796870907018        1.30462151926918
H           -2.87255421882922       -4.01739466019724        2.20763487582009
H           -2.52368698581677       -4.86142298297972        0.70812101540535
H           -1.21940221373591       -4.04759217510939        1.58891605162722
