75
 energy: -124.910410369877 gnorm: 0.000761303214 xtb: 6.5.1 (b24c23e)
Si          -0.04901485125014        1.40649384198596       -0.27638539556714
O           -1.53842266319273        0.99771792015295        0.24298134162830
C           -2.40530358951195        1.63390283768208        1.14543548535442
C           -3.06048205207348        2.85496071351254        0.55238519792778
H           -1.83752021058275        1.93553362434080        2.03475860730147
C           -3.17803685964866        3.01029193118651       -0.81981456806431
C           -3.56560016317590        3.83732500948469        1.39456826802236
C           -3.78640059477355        4.13647062453457       -1.34558430822905
H           -2.77152595525395        2.25232106150023       -1.47139671535675
C           -4.18084148236904        4.95787941004431        0.86876925711501
H           -3.46134882268943        3.72762973759530        2.46463035274895
C           -4.29225742037498        5.11042270766301       -0.50333442391780
H           -3.85959960907707        4.25535601551958       -2.41679273425067
H           -4.56553042069168        5.71979244105192        1.53094525236267
H           -4.76517818740141        5.99056887573315       -0.91364247217783
C           -3.46929747350465        0.59391108337872        1.55394555812007
C           -2.85815302969928       -0.47108144769976        2.31725043076329
H           -4.23743813547007        1.08534193793636        2.15559820751690
H           -3.92936059645301        0.18753773141392        0.64883229715385
C           -2.29170510167886       -1.31847010843858        2.94455025578562
H           -1.81848591088454       -2.06055846544661        3.51495847010930
Cl           0.38464629272013        2.42520932041313       -2.00384566845400
Cl           0.21863212757596        3.11594485272155        0.99918835785916
O            1.16006340005735        0.62409854978739        0.65146403994892
O           -0.09871113926508       -0.06136014586502       -1.38307783428071
C            1.78685524316798       -1.52260435427737       -0.14501164972911
C            0.41109567343143       -1.93436783550387       -0.08289464675654
C           -1.79839114187877       -1.56861010306359       -0.92822088029346
C            3.33215144012128        0.33432355803036       -0.09905067544294
C            4.38635082018199       -0.48176982069863       -0.46805068153249
C            2.83908018397159       -2.36472778907835       -0.54796117893794
C            4.11070202294096       -1.85017458107904       -0.68439084562109
C           -0.06444353769034       -3.03196347960342        0.66286031664398
C           -1.39147684119137       -3.38284870250129        0.57573663772145
C           -2.28241444205040       -2.68758222170234       -0.26480304440321
H            4.91230399714668       -2.49690632422163       -1.00491299733911
H           -1.76682427028651       -4.20835518178990        1.16051073785007
C           -3.68457794779451       -3.10001452925172       -0.37984699475986
C           -2.61573795863399       -0.75229287488436       -1.73827820165850
N            2.10101471810392       -0.20178842843535        0.11457531169523
N           -0.50587015861920       -1.20731037741962       -0.80759628849521
C            3.43032022367730        1.73149786302402        0.04895189492130
C            5.73819352549339        0.05110342753745       -0.66158646928762
C            6.50522506071747       -0.35720958724022       -1.75204368565662
C            6.29024658848828        0.94897885336753        0.25115763676684
C            8.32476551062332        1.02407479219004       -1.01997037679342
C            7.57350774242666        1.42864798500589        0.07125185491840
C            7.78552351674457        0.13058558879214       -1.93100285190472
H            6.08323134571799       -1.03790410895548       -2.47701848440399
H            8.36505205646342       -0.18591266282951       -2.78581806738969
H            9.32614267437157        1.40279236020772       -1.15982796211048
H            7.99106198037732        2.11951181357114        0.78856098923768
H            5.71616348395919        1.25528847716274        1.11205319116541
C           -4.30161167631294       -3.21988975521382       -1.62378586944165
C           -4.41769742405687       -3.39519458881206        0.76870622872927
C           -6.34452375095189       -3.90602932123437       -0.56637442942435
C           -5.73877170434410       -3.78874808622622        0.67401922943680
C           -5.62086503088331       -3.62236897840888       -1.71302914708656
H           -3.73764691512795       -3.01444209771067       -2.52113599423785
H           -6.08645913719884       -3.71825478349446       -2.68286816222588
H           -7.37601608079570       -4.21694821898172       -0.63890994788796
H           -6.29943713488678       -4.00287417872393        1.57203133146340
H           -3.95534488581253       -3.27615429229945        1.73709473176210
C            3.40564688373065        2.92707861475577        0.16674007401729
H            3.39406813451961        3.97098281870789        0.26768522192314
C           -3.28762043889638       -0.05380278210897       -2.44792400960053
H           -3.88647901489756        0.54885934759575       -3.06387458640067
C            0.82349860361850       -3.75059818031883        1.63333887153668
H            1.03149098715462       -4.76405224603237        1.29388484485029
H            1.76241097672695       -3.22477438479635        1.77704094238149
H            0.31828775966604       -3.82809065925478        2.59435005309438
C            2.59702888339934       -3.78992287599744       -0.94551756855309
H            3.15882734238834       -4.01252223493808       -1.85052020279358
H            2.94496602327922       -4.46915972007433       -0.16874958704264
H            1.54499053838600       -3.98054321297344       -1.13341787232358
