75
 energy: -124.910157270216 gnorm: 0.000730265478 xtb: 6.5.1 (b24c23e)
Si           0.35388839250738        1.74531444638511       -0.25583970863113
O           -1.23687632957644        1.67913212957691        0.06647704921907
C           -2.06819293419393        2.29337936205711        1.02876749065549
C           -2.57883950568280        1.16357446292551        1.89689412230881
H           -1.46180561132649        2.97889050827327        1.63572744447530
C           -1.63583958676805        0.47982096482333        2.65940348658806
C           -3.89241259087991        0.71817229988235        1.90057351458621
C           -1.99604946197859       -0.63047101667628        3.39804830539275
H           -0.61333761466932        0.82816485903900        2.66142724611853
C           -4.25159200321779       -0.40096650879191        2.63419513342789
H           -4.65248539472745        1.23710353893075        1.33850823639750
C           -3.30608564991694       -1.08146145449889        3.37895829418011
H           -1.25352453433520       -1.14178520081813        3.99378081829202
H           -5.27646006029211       -0.74239148985014        2.61644704726564
H           -3.59017576263507       -1.95403595214741        3.94968328146050
C           -3.14397166815661        3.10386159309827        0.29688975784504
C           -2.50949693075318        4.13870415395855       -0.49430584021552
H           -3.81968156105375        3.55325071793732        1.02876879675492
H           -3.70578304748154        2.44815776735060       -0.37352101478891
C           -1.93595951406000        4.95710295846069       -1.15084441879881
H           -1.44010688696262        5.68309224540056       -1.72203605966406
Cl           1.13989487201977        2.65439298840846       -1.90700345625285
Cl           0.86401832499736        3.32890186683833        1.09986799798870
O            1.26846674490815        0.71651605525922        0.77428810205092
O            0.11321263308884        0.29739072403974       -1.37935147304129
C            1.43448118155785       -1.53907749175685        0.05378665367234
C            0.00222004259733       -1.60332385963014       -0.03373417384716
C           -1.94742798546962       -0.71471204887843       -1.11004354823057
C            3.36484475783727       -0.09097732016185        0.20597549820445
C            4.22376493808833       -1.14242126603794       -0.05753260610365
C            2.28988538303069       -2.61953042750207       -0.22835702340668
C            3.65348821903802       -2.41900478417231       -0.25827796367662
C           -0.81108563334415       -2.52882575375492        0.65352714148120
C           -2.16284656580354       -2.54330804961929        0.41292149714040
C           -2.76791045532394       -1.66755337779232       -0.51455265217738
H            4.30512677943906       -3.24745924723204       -0.48744189179020
H           -2.79170482242086       -3.20973019597485        0.98204859158166
C           -4.20132882807101       -1.76810557680348       -0.78565399338354
C           -2.38538365309799        0.23938188031380       -2.05390315119841
N            2.03010766786951       -0.32189525036339        0.32785993606354
N           -0.62563620637296       -0.69206563203224       -0.84923446560170
C            3.77299789053972        1.25071480508126        0.33483980558867
C            5.67194474709259       -0.94325706739862       -0.16774508833020
C            6.38817932801088       -1.56824402883906       -1.18786073632443
C            6.36028777721005       -0.15119619107875        0.74982865678528
C            8.42974744806060       -0.60381003279046       -0.37893214667110
C            7.72797731544603        0.01430233972951        0.64284697337805
C            7.75472532386756       -1.39475269537423       -1.29393542514733
H            5.86475163118626       -2.16921468204796       -1.91710276580895
H            8.29558957612186       -1.87648169021650       -2.09524342741346
H            9.49791762150974       -0.47035651448057       -0.46203589800164
H            8.24978252279667        0.62719877782664        1.36269188863762
H            5.82193424734819        0.32017722410714        1.55759444718811
C           -4.81417287886548       -3.02318826932988       -0.80931334713215
C           -4.99462391108060       -0.64064921399864       -0.99709097972567
C           -6.94759649300743       -2.01470382796707       -1.24166987139291
C           -6.35200130667597       -0.76422726531391       -1.21990346591622
C           -6.17078840142692       -3.14343668962284       -1.03838295217470
H           -4.21625424172495       -3.91264128231306       -0.67398037283126
H           -6.62535379620400       -4.12316155512216       -1.06088715382052
H           -8.00866011029608       -2.10930612909143       -1.41717491318881
H           -6.95118120162339        0.12116978151255       -1.37466523139449
H           -4.54186273529866        0.33631877479816       -0.96952408219136
C            4.01605832470801        2.42406646740964        0.42744566432008
H            4.24278800821924        3.44528751232798        0.50521364814454
C           -2.64770724602498        1.06594036018124       -2.88516300160224
H           -2.91385814375152        1.79595556402839       -3.59003484140290
C            1.75586399349929       -3.96591298767361       -0.61393656597912
H            1.84261675870431       -4.66441075932763        0.21689575877435
H            0.71562581676471       -3.91092827704120       -0.91944055460684
H            2.34162454578233       -4.36464551213697       -1.43959297632798
C           -0.24642944571671       -3.40862453671611        1.72693797495692
H           -0.87245202528038       -3.33161076862786        2.61378894366739
H           -0.24576387498133       -4.45223522570844        1.41636954284157
H            0.76644079668453       -3.11584402325111        1.98646649076211
