75
 energy: -124.905587144045 gnorm: 0.000935056716 xtb: 6.5.1 (b24c23e)
Si           0.25334133584354        1.71004301534498       -0.59231850386043
O           -1.33830071099589        1.73452645710621       -0.29507290363747
C           -2.32188180422584        2.14024498033313        0.62665790498131
C           -2.25811146061960        1.26254145867260        1.85457069272968
H           -3.26896589505417        1.94745099576274        0.09790508199845
C           -1.10669062609693        1.21068977987634        2.63056415827651
C           -3.34004469866017        0.45986807611207        2.19207456159909
C           -1.03540466665524        0.35383488139249        3.71438824036095
H           -0.26110092666076        1.83091711378768        2.37883862945386
C           -3.27229229682364       -0.38510637489633        3.28604026320585
H           -4.23976235361946        0.50077527689150        1.59369835275046
C           -2.11647900572196       -0.44584813419320        4.04535333858519
H           -0.13277187261791        0.31529890834560        4.30621684770453
H           -4.12341971035127       -0.99756423282179        3.54894888037730
H           -2.06197136108621       -1.10830180104704        4.89785897758271
C           -2.27175926694407        3.63413927610849        0.98420932132945
C           -2.42598546723636        4.43977253103832       -0.20734379136034
H           -3.08418041132374        3.84285382478268        1.68619381435009
H           -1.31682498373487        3.87484012711259        1.45306286675269
C           -2.55101848342640        5.06340240762402       -1.22036959476839
H           -2.64665411690260        5.63752670053567       -2.09250086348493
Cl           0.96545208542364        2.40149523618914       -2.37778522389443
Cl           0.90238154939200        3.41895953645951        0.53356505754529
O            1.17821002566284        0.79324905561576        0.53274208836261
O           -0.01521518386880        0.12457197004900       -1.53439957271413
C            1.28891408872860       -1.54102556582469        0.12181051815652
C           -0.14416928424478       -1.58564145693627        0.04794465972155
C           -2.07996088496965       -0.84505631873252       -1.14829946591508
C            3.25330716328805       -0.13478518486540        0.08703796996741
C            4.08546523978228       -1.23336140054572       -0.02607443721813
C            2.11595388049304       -2.67167990562014       -0.00949268467226
C            3.48375870755590       -2.51098507147171       -0.06248814155478
C           -0.96429990796447       -2.39752843341398        0.85732741871494
C           -2.31309014191370       -2.45822426508781        0.60218909188756
C           -2.89999157339936       -1.72657039334322       -0.45003512795001
H            4.11515995274765       -3.37786690258875       -0.17715042678481
H           -2.94011534717980       -3.07912171010027        1.22239251740454
C           -4.32514059027134       -1.86217554627522       -0.75573360123825
C           -2.56185256103722        0.05499082931867       -2.12260594147610
N            1.91171199430543       -0.31236245421148        0.22249359471633
N           -0.75948937799918       -0.78670448899943       -0.88943095149872
C            3.69862436210997        1.20064437003772        0.04286570316505
C            5.54044338194059       -1.08984996946710       -0.13441381251679
C            6.25363235058625       -1.85748697786213       -1.05411236303558
C            6.23801252535786       -0.21313568027010        0.69476781292166
C            8.31173527099475       -0.86812433683889       -0.32097978478360
C            7.61249614563290       -0.10669026463016        0.60079538097607
C            7.62717354004024       -1.74233971704850       -1.14881158298582
H            5.72351638369027       -2.52684378817592       -1.71573049327603
H            8.16631179195800       -2.33571847562393       -1.87257910790368
H            9.38551816796061       -0.78171621191728       -0.39360587184592
H            8.14163216581760        0.57182222503347        1.25324225682582
H            5.70079254174923        0.37104118351427        1.42597481943048
C           -4.77764491366576       -1.89948405396758       -2.07506437026945
C           -5.25880733349708       -1.99113048597132        0.27369308637898
C           -7.04273205016973       -2.15645832721824       -1.32148856913021
C           -6.60383174818541       -2.12978469088158       -0.00791646991514
C           -6.12328283862774       -2.04573984048208       -2.35170673838477
H           -4.06713130303772       -1.83457764424819       -2.88459000013044
H           -6.45664078209033       -2.07849986623386       -3.37841498912446
H           -8.09410480442369       -2.26700630935559       -1.54035619772822
H           -7.31450673473281       -2.21665909122906        0.80110092218444
H           -4.92806727026606       -1.95719035723974        1.30054928871074
C            3.97796831102287        2.36806282093747       -0.01523450379726
H            4.23363730608151        3.38418580758197       -0.06242113645963
C           -2.91212007692058        0.85969824060315       -2.94214870476197
H           -3.23371165543440        1.55919690074785       -3.65429556456736
C            1.54589254075535       -4.04410764766469       -0.20468031691353
H            1.60983214189644       -4.62032622359985        0.71684830768061
H            0.50786561407223       -4.00526104134694       -0.51994729802401
H            2.12199661807696       -4.57169964552387       -0.96186301825855
C           -0.41097605527505       -3.10229964881621        2.05805836194818
H           -0.99702734123668       -2.81759245463169        2.93078436490585
H           -0.48535716736129       -4.18266805186706        1.94658761042353
H            0.62484386356605       -2.83115854382739        2.23585836177310
