75
 energy: -124.902597419537 gnorm: 0.000730948187 xtb: 6.5.1 (b24c23e)
Si          -0.02086940880444        1.01725812420812        0.32304765177990
O           -0.63435678608183        2.51178146589545        0.30220078945128
C           -1.71934597397375        3.13912638127993        0.93456799597626
C           -2.71558677010660        3.59563579210525       -0.09908461134930
H           -2.20292713855301        2.43928002851826        1.62492901456377
C           -2.29072059936494        3.97859002975959       -1.36399068794333
C           -4.06902033885843        3.64517783254658        0.21006251813748
C           -3.20831396414515        4.40219249074515       -2.30919132438512
H           -1.23985163171593        3.92453432860010       -1.60258637097641
C           -4.98494911985144        4.07529635040884       -0.73428437100441
H           -4.40311241218661        3.33662814121367        1.19075215410190
C           -4.55624015071549        4.45402301961240       -1.99617958095774
H           -2.87005888379212        4.69390385398865       -3.29268285124497
H           -6.03661690875562        4.10864433162786       -0.48712793237428
H           -5.27267640145118        4.78534866562294       -2.73395967513553
C           -1.16982589246670        4.33656896730270        1.73594177705698
C           -0.30011525206480        3.85787439063665        2.78847324470853
H           -2.00366093648167        4.90110830737102        2.16072522060093
H           -0.60593976742888        4.98155544423949        1.05717403631341
C            0.41025028150285        3.38212120524018        3.62547701524161
H            1.02905917220607        2.99124610583653        4.37650421801980
Cl          -1.40066898292964        0.24529364498750        1.84349555380771
Cl           1.49032912608614        1.81176679879936       -0.99106724206638
O           -0.47013801188540       -0.07645626352870       -0.91110674114746
O            1.10959951195739        0.00753913190465        1.16312934093272
C            0.27320426480385       -2.20186315528808       -0.21324830530391
C            1.64077457558761       -1.74012823738173       -0.30731479689060
C            3.28273074723625       -0.10572104730678        0.35825482337327
C           -2.07439683145224       -1.69129488017495       -0.46868307500983
C           -2.43626332409109       -2.97160899151992       -0.08715883640687
C           -0.07409336187436       -3.49256964443461        0.21591980052218
C           -1.40305745403049       -3.86124439616070        0.27183562976704
C            2.61280798297430       -2.37325097931365       -1.09948246093084
C            3.89317844370750       -1.86015575994024       -1.14600158291593
C            4.25530716961000       -0.70759038234072       -0.42306175943507
H           -1.66402988720157       -4.84635024459452        0.62544930402493
H            4.62079985450999       -2.30946398192247       -1.80382468610106
C            5.59718817015492       -0.13205880383404       -0.54601332870287
C            3.52406041076874        1.00784360569717        1.18752356192412
N           -0.76346683341880       -1.35738489440836       -0.56002813637120
N            2.04096107504866       -0.63892427676341        0.41884199252405
C           -2.99422305400588       -0.66217257447821       -0.75430013384630
C           -3.84143331264222       -3.38058681100306       -0.00708504079865
C           -4.29442795700263       -4.11086687881199        1.09062882896736
C           -4.73936280598702       -3.07011539922424       -1.02677288305586
C           -6.50000216992492       -4.19801594780915        0.15198857204789
C           -6.05705802880888       -3.47868057559946       -0.94571744010070
C           -5.61453812688094       -4.51065022307016        1.17025423740734
H           -3.61354776210406       -4.33732511017774        1.89758850610342
H           -5.95542740266460       -5.06675140452292        2.03118243915750
H           -7.53081154800634       -4.51342132146090        0.21412346425690
H           -6.74196746264603       -3.23681821585740       -1.74499351027124
H           -4.39634450050883       -2.52279284068812       -1.89160074668188
C            6.72483601335535       -0.94903303665090       -0.50103253554323
C            5.75534009236902        1.23782450100866       -0.74970709076235
C            8.13915330520462        0.95919209843469       -0.83117567103236
C            7.02067470855528        1.77498596456635       -0.89180794143725
C            7.98769272792476       -0.40380039839641       -0.63673163089406
H            6.60968267347019       -2.01094146846839       -0.33654916603969
H            8.85682685855025       -1.04377293059964       -0.59126168598777
H            9.12647252930228        1.38291791266867       -0.94029333291266
H            7.13517399979016        2.83596907639396       -1.05650923402802
H            4.88044212326148        1.86501268485649       -0.82408602518883
C           -3.70401243665300        0.27587620700748       -0.99990121312383
H           -4.34731593984761        1.08256445237305       -1.19113455942554
C            3.67249541978885        1.92181485502024        1.95279875787672
H            3.82870039262753        2.74287941708922        2.58645424157780
C            0.95902833978325       -4.45293584318295        0.72334211449338
H            1.08345409011531       -5.28266476324869        0.02928713016637
H            1.91926196710911       -3.96907981219616        0.87123380436005
H            0.62794006643114       -4.86692945021539        1.67384198783509
C            2.26539550683806       -3.52299855328995       -1.99620579050121
H            2.67078276511368       -3.33900537939415       -2.98915874805148
H            2.70999977872087       -4.44530849447184       -1.62538471566005
H            1.19156338700831       -3.65815523588669       -2.07852127510547
