67
 energy: -119.162057716180 gnorm: 0.000769762096 xtb: 6.5.1 (b24c23e)
Si          -0.12373051831501        1.09057246127163        1.72526231993315
O            0.65637713302288        2.18980495777194        0.88617666289750
C            0.78883475045962        2.61030827053967       -0.46923209076584
C            2.10775486083393        2.09014236201931       -0.98073588610286
H           -0.02721192990126        2.17139566287989       -1.04697944732405
C            3.31452670223955        2.59016749469985       -0.50861621375489
C            2.11930316835700        1.03060887022388       -1.87863024357335
C            4.51152466208006        2.04111395057266       -0.93312829383057
H            3.32034493101601        3.39355341540070        0.21069432101314
C            3.31713646367778        0.48369901574774       -2.30379235658211
H            1.17942914089398        0.63170803769241       -2.23165920240730
C            4.51648373489293        0.98628800044801       -1.82937193728661
H            5.44385355816484        2.43042401131217       -0.55347315595363
H            3.31317446428766       -0.33900566783191       -3.00442521016787
H            5.45134709720020        0.55133306326395       -2.15134593768810
C            0.66230342502472        4.13830508541617       -0.49792696078560
C           -0.71732577801969        4.50953624920761       -0.25701159344836
H            0.98359781815635        4.50508028114012       -1.47613414021674
H            1.29905262954089        4.57201749959879        0.27603877597036
C           -1.87374328464763        4.73871864154065       -0.05536127926855
H           -2.88631543381937        4.95339535540041        0.11139015625323
Cl           0.56693445432489        1.41569629489046        3.58219516245343
Cl          -2.13115490813985        1.19430851994495        1.85503762622115
O           -0.88560396204008        0.32765984541525       -0.69663690230209
O            0.27382186840369       -0.51918573797215        1.54719497570314
C           -1.27769347316178       -1.89508450088135       -0.34590929702346
C            0.14276072404012       -2.09537294326675       -0.21680152088937
C            2.27434755661737       -1.21827011274460        0.49744051545852
C           -3.04903210570204       -0.37353761225930       -0.71004805240576
C           -4.00798164541565       -1.38583741046638       -0.62604849795865
C           -2.20657083710053       -2.93785240677649       -0.28475592349213
C           -3.55179565423258       -2.69217832450528       -0.40666894541484
C            0.80522475133330       -3.14361595684869       -0.82726457650954
C            2.18809467394536       -3.22873078329762       -0.81325178490195
C            2.94266286982966       -2.23365550600031       -0.16626830410655
H           -1.84161540197585       -3.93661106571408       -0.10573616975264
H           -4.26357881460380       -3.49991518719717       -0.34975227212119
H            0.22339579775010       -3.86929563372956       -1.37405233268900
H            2.69163215791550       -4.04318683861131       -1.30616347439186
N           -1.72649905742747       -0.62486253766290       -0.57414187522685
N            0.89120283928233       -1.16953549643775        0.49024495566611
C            4.41085530386162       -2.26313134763652       -0.21970051520972
C            5.18606804052209       -2.05821462547511        0.91823916937023
C            5.04526296361744       -2.51199445879422       -1.43522844015487
C            6.56594711509563       -2.08080005656473        0.83450114418480
H            4.70912056511257       -1.89986813747226        1.87297155955079
C            6.42457676786353       -2.52672492394443       -1.51528165868559
H            4.45190792179484       -2.66969988968477       -2.32384540730393
C            7.18886197886631       -2.30754828218807       -0.38114573280178
H            7.15620968616236       -1.92039353301969        1.72379264960534
H            6.90475153334640       -2.70867797441534       -2.46556873076847
H            8.26661635254404       -2.31820182888104       -0.44450795641971
C           -5.43936699042249       -1.10202455280369       -0.76145723390711
C           -5.92530114461631       -0.27669059871035       -1.77362508586344
C           -6.34149666703707       -1.68712151541867        0.12679075764850
C           -7.28198736096413       -0.03772591782583       -1.88631384064793
H           -5.24261835573137        0.16078904236370       -2.48600068746853
C           -7.69557579485593       -1.43853879003150        0.01364414154514
H           -5.97232228447364       -2.31353415750851        0.92557507538041
C           -8.17005629724367       -0.61372412883354       -0.99318499681808
H           -7.64668399103936        0.60114556698913       -2.67630960011973
H           -8.38304697552845       -1.88794803041742        0.71473507670091
H           -9.22862610543277       -0.42118401327102       -1.08119637598541
C           -3.38231161030606        0.98289337866820       -0.94741587283424
C            2.94609643521214       -0.19829125195769        1.18624760910719
N           -3.63751801810683        2.07628589243759       -1.17326978748651
N            3.49590550296097        0.62301451020656        1.77458114616051
