67
 energy: -119.159768547150 gnorm: 0.000414332114 xtb: 6.5.1 (b24c23e)
Si          -0.56404419957041        1.02222512560695        1.20573991503736
O           -0.64540997964538        2.61262903577842        1.07539008426007
C           -1.04950281676288        3.41167726018112       -0.04186565234619
C           -0.15070691308912        3.13443288844951       -1.21679727931423
H           -2.08282242404809        3.14964217975975       -0.29487541151209
C            1.22784352183381        3.12320672065567       -1.04592427383540
C           -0.68668064682863        2.85350819947364       -2.46574288688033
C            2.06072786703127        2.83393399120037       -2.11126574295204
H            1.64576179577747        3.32478982968653       -0.07071387632652
C            0.14888164560226        2.56236456470788       -3.53003710276324
H           -1.75859103060364        2.84658498079493       -2.59628436395389
C            1.52272164913617        2.55122412393536       -3.35551488114825
H            3.13190490383578        2.83329109252501       -1.97058790277995
H           -0.27463074278335        2.33708548369835       -4.49765817369864
H            2.17211269467375        2.32017110818225       -4.18733330213023
C           -0.97806849677877        4.88105990338396        0.39255826137935
C           -1.93896433347559        5.16114490419076        1.43888487303489
H           -1.18498766271970        5.51127679812588       -0.47626367991557
H            0.02937503658826        5.09751785669943        0.75604952228804
C           -2.74061358667467        5.36133352691272        2.30367254500269
H           -3.43955238306906        5.55248062993773        3.06180451866079
Cl          -2.05181329565216        0.23491854267800        2.29946877848787
Cl           1.23275294914415        0.57321440727818        1.97133032988338
O           -0.66043751537455        0.45028608012306       -0.33869003995326
O            1.33552394964848       -3.39753445809345        1.15491713079266
C           -0.41205315863848       -1.92686339132169       -0.39152645410547
C            1.01990659463524       -1.75960875394839       -0.42391225847286
C            3.16173423123458       -2.28614568185893        0.41618622874346
C           -2.53963083476007       -0.86680620206426       -0.83566548738255
C           -3.22131346232873       -2.03775675771901       -0.53992166214216
C           -1.09284908742553       -3.08393905676481       -0.06721483445377
C           -2.47880662507467       -3.15064619863633       -0.12641852821884
C            1.61455779127432       -0.80969427177233       -1.26129027347842
C            2.96998462101248       -0.58929213596269       -1.25222262021519
C            3.78059439173116       -1.33090664784863       -0.39138926405310
H           -0.52310046494855       -3.94752845807282        0.23389703045758
H           -2.98608221954473       -4.06756732426360        0.12197940014494
H            0.98575702074299       -0.25153073521316       -1.93624352048712
H            3.40969331270271        0.13354499315165       -1.91905626619974
N           -1.15104439140598       -0.80515163691498       -0.76928996168133
N            1.81788911165014       -2.51473670065740        0.40069056901897
C            5.23023627553364       -1.11201601262242       -0.34724206458254
C            6.12746621909570       -2.17693521305550       -0.37332440177650
C            5.72360552430949        0.19100524297857       -0.30471507525044
C            7.48918817245957       -1.93989328987565       -0.34947451547439
H            5.75886939488479       -3.18977180085273       -0.43219040674524
C            7.08542417193877        0.42165661979216       -0.27304616476260
H            5.03077391749216        1.01883250314474       -0.26571414358920
C            7.97164469923373       -0.64288358100440       -0.29614748498862
H            8.17600833616374       -2.77228955340644       -0.37268753829327
H            7.45749230804784        1.43450875840642       -0.22820449969202
H            9.03564108428763       -0.46147201361070       -0.27288460098947
C           -4.68453260195642       -2.08951297772801       -0.63799041370974
C           -5.34882319446445       -1.56668970088162       -1.74457083076612
C           -5.42506266314891       -2.67626898327950        0.38571575425275
C           -6.72763929233674       -1.62911459674004       -1.82213483464347
H           -4.78243332274912       -1.12931725662716       -2.55319969112279
C           -6.80369016089663       -2.72840322078489        0.30658566946870
H           -4.91621441185921       -3.06534602990428        1.25503282980024
C           -7.45799846270986       -2.20694867118305       -0.79735769123377
H           -7.23326834856994       -1.22518393032019       -2.68614840587033
H           -7.36957951903480       -3.17626379097964        1.10955713215722
H           -8.53493562455958       -2.25119342242639       -0.85877766427687
C           -3.17081791031965        0.34364605413690       -1.14341427451005
C            3.89379904191527       -3.05294008336983        1.35427272275886
N           -3.63459242910291        1.37476413672339       -1.36452833722012
N            4.49121697929568       -3.66288300253311        2.11825344426768
