67
 energy: -119.161930045095 gnorm: 0.000863601994 xtb: 6.5.1 (b24c23e)
Si           0.56592833165621        1.30030614529447        0.87913595099476
O           -0.93651004830236        0.87454940237307        0.51335224578657
C           -2.14883588217015        1.54327551491453        0.18326097946149
C           -1.97319949546440        2.39841418736830       -1.04537475708927
H           -2.85275188769526        0.73014936355730       -0.03789511037005
C           -1.20658389034876        3.55715237617177       -1.00564813131135
C           -2.54046146344922        2.00108686534089       -2.24942203546035
C           -1.01178345452618        4.30484257794839       -2.15291397346951
H           -0.74776547389510        3.87674829800543       -0.08109669696901
C           -2.34666669949157        2.75215559391464       -3.39550972232514
H           -3.13209130245905        1.09857934193299       -2.29668454207312
C           -1.58150192177660        3.90440131180460       -3.34970616379035
H           -0.40994843166928        5.20018253726272       -2.11024434455934
H           -2.78920959945956        2.42761031581542       -4.32463080814893
H           -1.42505407398273        4.48792363531296       -4.24454026442350
C           -2.67844415284788        2.33413780067514        1.38823181242405
C           -2.77886362659227        1.48447597172691        2.55571664957625
H           -3.66211402606827        2.73491570114790        1.13088771414290
H           -2.00661924988257        3.16335083097124        1.61719150853209
C           -2.82808599039748        0.75611000445771        3.50379874873506
H           -2.88314374045979        0.14715155964025        4.35643480921921
Cl           1.63766867336832        1.72268809433334       -0.77625574306207
Cl           0.70229992597552        2.68974543371655        2.30301285430571
O            1.20478879848940       -0.03232493503469        1.59815396282126
O           -0.50575407547656       -1.65697153928337       -2.24488351364715
C            1.26544916791237       -1.67308279464359       -0.14343739175302
C           -0.15382286245648       -1.87273988473144        0.01562605547474
C           -2.31813088658551       -1.90970287106457       -0.91567367593560
C            3.28767364080685       -0.85787197412133        0.88712485208735
C            4.04516039905879       -1.28187612966825       -0.19374832944195
C            2.01187072454346       -2.05972833496447       -1.23934139327301
C            3.38534174396875       -1.87126641938773       -1.28084513927188
C           -0.72463615971821       -2.05402889446226        1.27849695131417
C           -2.08434480635758       -2.15798308942153        1.44810813189445
C           -2.91970778382640       -2.07837889937405        0.33382388288717
H            1.50407234658825       -2.52205138206851       -2.06962088880646
H            3.95235873444932       -2.19498262041637       -2.13723944322689
H           -0.06504068040559       -2.11858827206886        2.12859923981886
H           -2.50873661641465       -2.31198062407125        2.42601306630354
N            1.91279769589215       -1.06302594381295        0.93046445330119
N           -0.96960699855750       -1.81986837176708       -1.08679421852385
C           -4.37954333399594       -2.15118767385766        0.46261668256422
C           -5.13794680627669       -2.96717412521554       -0.37385383343312
C           -5.02069024136508       -1.39920255623904        1.44588071584659
C           -6.51159665191200       -3.02381334235972       -0.23109338276389
H           -4.64927844498938       -3.57232037273978       -1.12271763873902
C           -6.39533092957314       -1.45489120681891        1.57772937573227
H           -4.43814975034625       -0.74873908306592        2.08278765482063
C           -7.14382190847916       -2.26680110477735        0.74134223363909
H           -7.08982206327752       -3.66171186345589       -0.88213409581378
H           -6.88365225420165       -0.86012248529644        2.33530653131365
H           -8.21732743019809       -2.30987864755181        0.84741632968988
C            5.50193278650508       -1.09941460012451       -0.20370094937498
C            6.27460527269655       -1.43375814662222        0.90566446448136
C            6.12864930145750       -0.60209458633519       -1.34430577163029
C            7.64686762122191       -1.26986193146800        0.87282436559131
H            5.80081498053379       -1.83957853886267        1.78684862550153
C            7.50023875177212       -0.43410713644644       -1.36910298916522
H            5.53264876988187       -0.32319719701233       -2.20064225820021
C            8.26256726399010       -0.76900878113753       -0.26220646272174
H            8.23700171830696       -1.53475683297614        1.73708001458766
H            7.97573957219800       -0.03994936109317       -2.25486895995594
H            9.33428011191886       -0.63990403169311       -0.28453125443393
C            3.83269884406074       -0.14578161538376        1.96495597826830
C           -3.09169534690358       -1.71951649524030       -2.08427448792251
N            4.25735127875423        0.46654401088652        2.84171224151842
N           -3.73180601371232       -1.51926917840831       -3.01393771159979
