67
 energy: -119.157290620539 gnorm: 0.000201849905 xtb: 6.5.1 (b24c23e)
Si          -0.27804612268733        0.85448025105022        0.54752887691657
O           -0.84818555932401        2.27627115095148        0.11878640489327
C           -0.72629265938907        3.60120160990417        0.59004062420668
C           -1.29150996503430        4.53747267224764       -0.44940663478076
H            0.33850055556607        3.81568431399466        0.75649920309428
C           -2.34691095466179        4.13701892214969       -1.25757314174127
C           -0.77641361399881        5.82114426782292       -0.57606634047266
C           -2.87549681784120        5.01523347611326       -2.18775263258840
H           -2.73963793588147        3.13551675798041       -1.16908535893613
C           -1.31269201790793        6.69778898779305       -1.50200049503639
H            0.04745466949055        6.13208077915760        0.05118100494219
C           -2.36316748016127        6.29547698198369       -2.31001124112225
H           -3.69216531943808        4.69546314052577       -2.81705417071739
H           -0.90671958628125        7.69423937466608       -1.59550462794053
H           -2.77825450351420        6.97963020747764       -3.03525630190564
C           -1.48425085943107        3.76570914619892        1.92069616087689
C           -0.79840350476451        3.08483621206254        2.99725903764242
H           -2.48978450925374        3.35493044618383        1.79808959469261
H           -1.56452400188745        4.83077285881229        2.15173489758318
C           -0.18471132330510        2.50964517443032        3.84871501594028
H            0.32628508655886        2.00797389053814        4.61525013541449
Cl          -1.36087407857685       -0.12660095198720        1.92821375301038
Cl           1.67236079597365        0.92312072943546        1.03812868117378
O           -0.41600182328292        0.07053662444880       -0.89145374861723
O            1.79235612675582       -3.39840292942220        1.05471612558108
C           -0.06816467434278       -2.27386764899986       -0.62844595040863
C            1.35017897281772       -2.03392427368943       -0.73967336899227
C            3.53402140200281       -2.30057858111611        0.11506561687274
C           -2.28112357650032       -1.36100964671839       -0.96884750009174
C           -2.86599909112856       -2.53928644062253       -0.52918123450058
C           -0.65170782475672       -3.43454495951219       -0.16320620354834
C           -2.03131975059608       -3.58501975891098       -0.11577222532618
C            1.87074472272199       -1.18876559386766       -1.72453105668955
C            3.20880247087206       -0.88210748973225       -1.77826626550856
C            4.07665717860821       -1.43279711765459       -0.83395179414968
H           -0.01105295835517       -4.23480898425047        0.16830645096241
H           -2.46337843365318       -4.50795123922532        0.23217031726667
H            1.19319260344189       -0.78306511724322       -2.45802652340181
H            3.59458945472849       -0.23723008691611       -2.55066315785747
N           -0.89758967070229       -1.23909131946406       -1.06780070167852
N            2.20769358063073       -2.61127087285637        0.16563940728234
C            5.50627789796177       -1.10458107813587       -0.84011320971993
C            6.48071646286950       -2.09420611847544       -0.73752340089800
C            5.89919849426501        0.22641083613763       -0.97066480234779
C            7.82068291747469       -1.75500142929247       -0.75829187083426
H            6.18896222201536       -3.13077126806150       -0.66114481180879
C            7.23990867115546        0.56001451958318       -0.98189973987549
H            5.14610706467464        0.99832154854567       -1.03286450817971
C            8.20377965754732       -0.42937093302874       -0.87655009374360
H            8.56840540354063       -2.52974753324192       -0.68137559151847
H            7.53394748526749        1.59533173858521       -1.07124130179009
H            9.25111457156285       -0.16740860049020       -0.88697428579814
C           -4.32704590243770       -2.66890123512800       -0.47103198602615
C           -5.12785146186086       -2.26030021345033       -1.53459906827255
C           -4.92701801288947       -3.22171398578245        0.65849716381283
C           -6.50153192323957       -2.39923837333708       -1.46519823526530
H           -4.67130811332423       -1.85137731365351       -2.42353981613666
C           -6.30119991745336       -3.35219116113858        0.72512986851760
H           -4.31252899578025       -3.52349373952904        1.49372073721613
C           -7.09153265173014       -2.94263574594845       -0.33619844718142
H           -7.11324861290672       -2.08253564891009       -2.29647067506277
H           -6.75710593568719       -3.77388450488737        1.60857556956355
H           -8.16482501817275       -3.04742394575777       -0.28342646154273
C           -3.01982694555691       -0.20836033047599       -1.26205554956371
C            4.32846383881581       -2.87297212020299        1.13704494019544
N           -3.60545198411699        0.76209803165711       -1.46609937533993
N            4.97507078447964       -3.32308635931635        1.96892331926860
