67
 energy: -119.155271517451 gnorm: 0.000765690616 xtb: 6.5.1 (b24c23e)
Si          -0.04306427621993        0.94501958934155        0.50990576563983
O           -1.07069316935106        2.10276629373771       -0.00117952574409
C           -1.01687100750066        3.50181445410236        0.06962002667178
C           -2.25044179228852        4.08004695840621       -0.57802362832227
H           -0.11722103305977        3.84641179831731       -0.46401228102902
C           -3.45066679329982        3.38395247656541       -0.54885072560107
C           -2.20234162840982        5.33652144001301       -1.16783265905070
C           -4.58755011859808        3.93827523391866       -1.11031836933051
H           -3.48116160755935        2.40455817500523       -0.09690119993064
C           -3.34199229534101        5.89109223286135       -1.72196387903786
H           -1.26755867817068        5.87954529149939       -1.19372507505437
C           -4.53743611040154        5.19233263182169       -1.69442397164107
H           -5.51687363243629        3.38832885408248       -1.08706550054148
H           -3.29624725799297        6.86922610391028       -2.17865670384972
H           -5.42642118506020        5.62559856412806       -2.12966081706278
C           -0.93545726291044        3.99186408513578        1.53217699794198
C            0.36061215088374        3.70004519314035        2.10468372042678
H           -1.71562044435857        3.48657456136199        2.10719337673102
H           -1.11624840942933        5.06970195353824        1.55215460449931
C            1.44908873017620        3.42611746727093        2.52053220731768
H            2.39740615788098        3.17236034763370        2.89110001384276
Cl          -0.82017193486606        0.65274797861339        2.38848652888440
Cl           1.67883723540238        1.74047101301630       -0.38711888472771
O           -0.62983464005700       -0.15504056358049       -0.64934401328660
O            1.10282160346469       -0.52509541786722        1.14763713976076
C            0.15984547819138       -2.40074435796575       -0.58660402666476
C            1.53491710500487       -2.02380123504288       -0.56688817561204
C            3.26465907352466       -0.68895904376753        0.38507938006633
C           -2.14641117609930       -1.84705206794584       -0.18209963898480
C           -2.53126831572404       -3.17099177551571       -0.25698983005158
C           -0.23363733016834       -3.73651456844396       -0.74297534595194
C           -1.53599654347783       -4.12818272926984       -0.58192552297424
C            2.50302865489240       -2.62855255435422       -1.39118826385851
C            3.81142624059996       -2.23973586681691       -1.35001391927233
C            4.23448057898742       -1.24614356485043       -0.43804807353508
H            0.53319302511445       -4.47174142279022       -0.93006930118702
H           -1.81738932697637       -5.16327032134250       -0.68353543378786
H            2.17538134345277       -3.37551426966759       -2.09642029741493
H            4.53952278339133       -2.69530520287056       -2.00190668206509
N           -0.85053127108862       -1.47450060302947       -0.40463445397297
N            1.97251625314698       -1.07412789574267        0.31676329476670
C            5.63649208190663       -0.82596014614869       -0.38292053494054
C            6.30373935350703       -0.67309006758566        0.83123023004908
C            6.32838833758347       -0.58803064824379       -1.57055472774093
C            7.62819107554605       -0.27872199530459        0.85319670707530
H            5.79123098835300       -0.88442526360627        1.75711094003176
C            7.64987569341054       -0.18668489603344       -1.54155004684134
H            5.81467059216037       -0.68656128817904       -2.51553592078816
C            8.30362043591380       -0.03026800164936       -0.33018827187836
H            8.13475380295987       -0.16520364707037        1.79956408358459
H            8.17081066352524        0.00800335530448       -2.46715523697657
H            9.33628555146959        0.28347215858261       -0.30915762756457
C           -3.91548263339488       -3.59285410311804       -0.01556094381984
C           -4.98784247421984       -2.92808919242311       -0.60658478281879
C           -4.16649801478665       -4.69579883057635        0.79954065232030
C           -6.28268734915389       -3.35274167523897       -0.37483432995261
H           -4.80521762566918       -2.09249952187279       -1.26463148411515
C           -5.46357950248441       -5.10974422104801        1.03482641676755
H           -3.34135903911664       -5.20851043142898        1.27199894784436
C           -6.52488271984616       -4.43970940901977        0.44855279614959
H           -7.10567403045687       -2.83220129122387       -0.84034774657232
H           -5.64694068241752       -5.95688222247486        1.67872252141483
H           -7.53757253633244       -4.76541697996484        0.63184255449429
C           -3.05739659046035       -0.80812259453385        0.11539332784836
C            3.56220671353766        0.29969837971389        1.35851657629805
N           -3.81243418204408        0.02367675660743        0.34434626616827
N            3.81909391735103        1.05733554003367        2.17758977689901
