67
 energy: -119.158867467335 gnorm: 0.000626285689 xtb: 6.5.1 (b24c23e)
Si          -0.40186469529830        1.18528895110726        0.94821469292248
O            0.44308383471692        1.92312510034144       -0.20623556758891
C            1.44904636578532        2.90851618257925       -0.17830518464957
C            2.73434562225707        2.29292855108172       -0.67458613841008
H            1.58166129235819        3.26746011048878        0.84950130662048
C            2.69147649001237        1.27677412650811       -1.62036279376027
C            3.96129100439551        2.69716314011256       -0.16738554863370
C            3.85729247993427        0.66075119783134       -2.03929543155640
H            1.73292931776119        0.96289880457588       -2.00741670618205
C            5.12669207802659        2.08342029981989       -0.59160463888357
H            3.99877672340443        3.47898025319298        0.57585526149308
C            5.07752304632994        1.05956011108284       -1.52200641642975
H            3.81472169811535       -0.13380270204883       -2.77086558943682
H            6.07617600104569        2.39557001279836       -0.18341491275792
H            5.98554236278756        0.56849111154518       -1.84025671326727
C            1.00204208280796        4.07682657849053       -1.07535272816570
C           -0.23705227257779        4.63541690558526       -0.57670096958446
H            0.84701464061578        3.70127569433593       -2.09010729067118
H            1.78585013909185        4.83796598993613       -1.08919374121003
C           -1.27353152590756        5.02947796189824       -0.12816833321883
H           -2.18208648035441        5.39533460783488        0.24636267410654
Cl           0.39755270710673        2.11467488180540        2.66936075100579
Cl          -2.36600574238879        1.45814621597047        1.56848661406020
O           -1.05772502691078        0.25019904803949       -0.56018916050117
O            0.20263123274269       -0.32694137039207        1.51813211542301
C           -1.49025657400052       -1.97492719546116       -0.05961093240855
C           -0.08998734250888       -2.19737569006880        0.07710310153293
C            2.08584404725805       -1.31528735926930        0.58624511059518
C           -3.25355053091612       -0.45392343781006       -0.57572979066108
C           -4.22228342697615       -1.43752777784123       -0.42832488675886
C           -2.44814058985381       -2.99931752414257        0.05595977014100
C           -3.78036998049279       -2.73771024741313       -0.08782657554993
C            0.53997465008072       -3.32957925399548       -0.46048231629912
C            1.90276755549501       -3.41480274736008       -0.55063498498934
C            2.71782123090222       -2.36037615382119       -0.06007961935411
H           -2.10526920510014       -3.98863985744858        0.31385437142834
H           -4.51045867617989       -3.52197292271917        0.03225938815965
H           -0.08351215978817       -4.10297127423627       -0.88119230752014
H            2.37243443357611       -4.27176691492528       -1.00468614000309
N           -1.94437018818644       -0.72229111647592       -0.38294680701364
N            0.72777769168000       -1.26515587047771        0.68427176585494
C            4.16777277018093       -2.36767207376556       -0.27572880773589
C            5.06703821531990       -2.03643286403008        0.73508067893666
C            4.66033355504279       -2.69926787877917       -1.53800831442672
C            6.42485070993517       -2.01106716026351        0.47818338254980
H            4.70549265144928       -1.81884705370029        1.72765660560880
C            6.01790781499979       -2.66552099418814       -1.79077261084705
H            3.97037639787465       -2.95390441119721       -2.32956949307369
C            6.90388509882836       -2.31576295272183       -0.78492013199974
H            7.11100233451393       -1.75063167193417        1.26941386524146
H            6.38577965636394       -2.90844717215418       -2.77672009789304
H            7.96445001369782       -2.28506857756829       -0.98458933232356
C           -5.65059707119861       -1.16416503158739       -0.61137388880560
C           -6.12417081622315       -0.46074245510447       -1.71704550243432
C           -6.56217077807175       -1.64036511715321        0.33079438180645
C           -7.47903811706499       -0.23222312090527       -1.86796319599067
H           -5.43340111226508       -0.11148886119587       -2.46871201367159
C           -7.91410000546369       -1.40054018245132        0.17889423428460
H           -6.20182528087226       -2.17100110193023        1.19987182239242
C           -8.37669651260487       -0.69670685753283       -0.92105043316190
H           -7.83463551470108        0.31125351321225       -2.73009455149102
H           -8.60888224618100       -1.76205570472806        0.92220636968756
H           -9.43357638464520       -0.51177440658189       -1.03967093151411
C           -3.56741431580618        0.86686666899264       -0.99181282483748
C            2.79722560443155       -0.26203039184988        1.20508694985840
N           -3.83294238825468        1.89673047833716       -1.41591986044180
N            3.37644040987122        0.57089595972166        1.73845300241019
