67
 energy: -119.161605121865 gnorm: 0.000192360262 xtb: 6.5.1 (b24c23e)
Si           0.69927902286058        1.82321062751016        0.21711652071825
O           -0.79816876029867        1.41986487818000        0.64298159714155
C           -2.04368413124002        2.08301859652239        0.70445818286386
C           -2.99211471770582        1.20931059491557        1.48826999029273
H           -2.41105758394577        2.21676115683795       -0.32125291611457
C           -2.53970693261205        0.52944840804757        2.61143079999746
C           -4.32846272889262        1.11237449122049        1.12355235698528
C           -3.41690962557374       -0.22453816851382        3.37009599148658
H           -1.49704485083258        0.59555339851292        2.88420270054113
C           -5.20526466488960        0.36346271175025        1.88739526952243
H           -4.67810280584349        1.62528706324842        0.24004366639523
C           -4.75304363392342       -0.29963193017092        3.01585066947565
H           -3.05725808100151       -0.74583879546187        4.24553334703026
H           -6.24357591273610        0.29463714970673        1.59965492980844
H           -5.44141485164991       -0.87586985330558        3.61619212148223
C           -1.94469809026784        3.46569639662919        1.37471784712886
C           -1.34545201661457        4.43465653466797        0.48311198405482
H           -1.34736767325239        3.38041606640199        2.28539109376497
H           -2.95405033880314        3.79047479573354        1.64158433179081
C           -0.85709528281541        5.19929618741418       -0.29662237723668
H           -0.41734122018762        5.88178599983525       -0.96005870822079
Cl           0.99087063361659        2.56217089034846       -1.60520603444125
Cl           1.43488672186040        3.08803314502685        1.61740093200176
O            1.57445423241045        0.50343043889021        0.69141810685252
O            0.04458009207997       -0.18654802265751       -1.39268801283659
C            1.67924359953270       -1.77408917723859        0.04045916518832
C            0.24932092806098       -1.93138084417022        0.06739578522842
C           -1.86181288612703       -1.21123134414431       -0.70692194982141
C            3.57172895414877       -0.31031927471859       -0.24148560983314
C            4.43796563105455       -1.38959362250796       -0.28625040462160
C            2.54449804702195       -2.85446934667901        0.01758915665007
C            3.91078596818991       -2.68314629615294       -0.12657836911290
C           -0.38634327692982       -2.94824955066550        0.78623827710181
C           -1.75084745940214       -3.09620566240623        0.75593641260123
C           -2.53289714697049       -2.22165780517121       -0.00756209649712
H            2.12816367488228       -3.84843614759037        0.06493493375343
H            4.57277569462522       -3.53274302816556       -0.13506063666234
H            0.22238847971636       -3.60755373190729        1.38400785784292
H           -2.22303053013040       -3.89621481296978        1.30222028774520
N            2.21468253618286       -0.49961504704455       -0.02723767733578
N           -0.51182651529600       -1.07833364884324       -0.68504317554016
C           -3.98620343366611       -2.37772520130120       -0.07936226770211
C           -4.68226965332697       -2.17854616968695       -1.27152027342417
C           -4.69924945412443       -2.76691058557007        1.05534197646767
C           -6.05407815858197       -2.33721356090639       -1.31709728704727
H           -4.14685896321137       -1.92430995161080       -2.17306973913853
C           -6.07019470317692       -2.92398932210519        1.00431521571711
H           -4.17722697283424       -2.91642583327926        1.98809543350470
C           -6.75414963622956       -2.70395159484748       -0.17986220170496
H           -6.57764960231829       -2.17793558331279       -2.24759009727732
H           -6.60885865903218       -3.21660347180179        1.89341799576384
H           -7.82642396468673       -2.82380078830615       -0.21777594619856
C            5.88031135634733       -1.19636122659787       -0.49279039552407
C            6.58719381519023       -0.24427062297189        0.23734532752785
C            6.56260720835382       -1.99521335967503       -1.40773858201186
C            7.94784560254437       -0.09081169687241        0.04693021037278
H            6.07388623532017        0.36283161660996        0.96734337920116
C            7.92155569719690       -1.83246676296935       -1.59953073059497
H            6.01791143317327       -2.72670445754908       -1.98683099456808
C            8.61736759590811       -0.88063683160581       -0.87261883357298
H            8.48623947995817        0.64888305099722        0.61963619690551
H            8.43900869765153       -2.44965719803916       -2.31892171947008
H            9.67929635905358       -0.75602820990244       -1.02201842694003
C            4.00191899144024        1.01131896194222       -0.43580516247892
C           -2.53411498209576       -0.23257450883252       -1.47268659987221
N            4.35097794709147        2.09598301635373       -0.58869020945181
N           -3.06090773428273        0.59038387093755       -2.07238161566216
