67
 energy: -119.161243956967 gnorm: 0.000265837690 xtb: 6.5.1 (b24c23e)
Si           0.38519817653123        1.72117024719208       -0.35885983066667
O           -1.17247736673444        1.52742655168455        0.06196096651779
C           -2.03009478751801        2.23230508971587        0.93942495209507
C           -2.68117111011987        1.17158499042613        1.79992737214295
H           -1.41685509052142        2.88778066990390        1.57374732650602
C           -4.04801395662035        0.94067617421140        1.85017208383295
C           -1.83374536806270        0.35111201324282        2.54028105163208
C           -4.55637896846735       -0.07511293951092        2.64358193588656
H           -4.73017308388740        1.55099723898613        1.28015447949534
C           -2.33894396165094       -0.67493598497287        3.31495354334899
H           -0.76896282343286        0.53213156970306        2.50302976288770
C           -3.70683804646347       -0.88631516826245        3.37439317142090
H           -5.62405139550067       -0.23390287041177        2.68409102495976
H           -1.66748799532685       -1.30294071511322        3.88282033802535
H           -4.10701701548900       -1.67718947449820        3.99273932278287
C           -2.99435144117292        3.10339509933354        0.12608781034948
C           -2.24439909673087        4.08551586432432       -0.63082030108897
H           -3.67830236026074        3.61225913540353        0.80997185562779
H           -3.55926513578771        2.47984241749383       -0.57190976269385
C           -1.57947458969146        4.86214061500821       -1.25096512670786
H           -1.00433441670485        5.54691879318049       -1.79813650522237
Cl           0.98279891263452        2.51205802877652       -2.11882121768050
Cl           0.90742359270915        3.29574122558107        0.93415222929381
O            1.46355575775976        0.75886995643687        0.56366697248838
O            0.08716014235134        0.10201609616802       -1.40231209455060
C            1.49373730898880       -1.60425781736501        0.19471433302398
C            0.08691817628197       -1.72416327234232        0.03078975533851
C           -1.91857281478706       -0.94547008094910       -0.98240839572918
C            3.48075641328400       -0.25811042167574        0.05901304667242
C            4.30224589867485       -1.36644579056387        0.10527147242932
C            2.32210870968245       -2.73237929184513        0.31685669022523
C            3.68503442603518       -2.63264021486564        0.28225448522072
C           -0.66403334053115       -2.75298681207347        0.63764945123851
C           -2.00807968052979       -2.86405138638120        0.44002621115707
C           -2.68333523739742       -1.95387816355614       -0.40532273564511
H            1.85320680169606       -3.70150918412101        0.37946410937838
H            4.30462212683045       -3.50997971518254        0.36860565463217
H           -0.15208648864382       -3.43188610837406        1.30020956082260
H           -2.56731296530687       -3.65356110738465        0.91500054152055
N            2.12438471747474       -0.37420773450984        0.18169732145841
N           -0.58763802283860       -0.85354251550935       -0.78392803471247
C           -4.11926741242618       -2.08369859860992       -0.65341784886052
C           -4.65694576079748       -1.89500108185624       -1.92686069119704
C           -4.97438066642278       -2.43502546740076        0.39211510141579
C           -6.01618353322160       -2.02667019899913       -2.13843321148498
H           -4.00732938776626       -1.66977599382645       -2.75849391509141
C           -6.33283962410374       -2.55781401990152        0.17576473345549
H           -4.57231674825817       -2.57711170388514        1.38332548063873
C           -6.85979158318498       -2.35017144112277       -1.08858541357712
H           -6.41731131284513       -1.87815947230039       -3.12940196479267
H           -6.98403732147438       -2.81639156875081        0.99756357382294
H           -7.92188653379592       -2.44579500098021       -1.25591040356231
C            5.76004626744950       -1.26229163181794       -0.01327571016815
C            6.47481685247711       -0.29732643156998        0.69388070809141
C            6.45263533908451       -2.16263685624144       -0.82216540315587
C            7.85093222014938       -0.23063043700747        0.58290442980128
H            5.95469401145341        0.38601390452346        1.34736500334439
C            7.82741633017528       -2.08556108931177       -0.93521431741963
H            5.90524224698362       -2.90460521152551       -1.38521040189560
C            8.53021315143448       -1.12009915828582       -0.23296885544726
H            8.39422057946845        0.51906680259253        1.13743541583721
H            8.35203980072037       -2.78026538001974       -1.57405662598107
H            9.60456686655047       -1.06290219399526       -0.32042005396386
C            3.98327320793666        1.05038804388837       -0.13322340466825
C           -2.49808871116890        0.06630166928904       -1.78856188696430
N            4.39786349318805        2.10351175124698       -0.31115681880385
N           -2.99387037236663        0.87459475856463       -2.43018534709062
