67
 energy: -119.160891984054 gnorm: 0.000785789394 xtb: 6.5.1 (b24c23e)
Si          -0.23020750896720        0.96133102660535        1.46352101577613
O            0.02256662231383        2.09923026489670        0.38628396462472
C           -0.56845958988341        2.51221946391536       -0.83883116861926
C           -1.64450380099352        3.52476087636129       -0.55122572230422
H           -0.99514673671987        1.63459423357975       -1.33040904959623
C           -1.37340338868580        4.60708361754375        0.27694185152877
C           -2.91791391394691        3.36868527750649       -1.08098834564194
C           -2.36342414533172        5.52961302160472        0.56227238772156
H           -0.39058468192461        4.71015773794246        0.71211623645671
C           -3.90504321491122        4.29667795827679       -0.79817743433107
H           -3.13919212552484        2.51182713181030       -1.69997804889993
C           -3.62924622020756        5.37863087790248        0.02080730060001
H           -2.14806439956350        6.36529275847556        1.21156338369462
H           -4.89456820494954        4.16733199929698       -1.21081751777348
H           -4.40239236955061        6.09890957438779        0.24501334815386
C            0.55704506062305        3.09289835536450       -1.70872082124403
C            1.43907790704433        2.04679039226652       -2.17835020766866
H            1.13217324514925        3.80529925536692       -1.11245638255216
H            0.11428226526416        3.61149421559702       -2.56283060163076
C            2.15909328543027        1.16344244315651       -2.54337923809883
H            2.79589158904902        0.40430445839475       -2.88713904980522
Cl          -2.09207959702253        0.23531735873984        1.73625946094630
Cl           0.31037567505539        1.80883850373203        3.20480412158584
O           -0.62595941365282       -0.37181732615122       -0.77971228361029
O            0.83812637087958       -0.31100507601028        1.44614273618590
C           -0.01880984649768       -2.48369428689969       -0.13639857176118
C            1.34993527202539       -2.04658111712565       -0.07933249885076
C            2.86934782907169       -0.20192645843333        0.23992823323854
C           -2.27010951753722       -1.92227223973567       -0.59156518246975
C           -2.71110573511291       -3.21877272740648       -0.31753517945892
C           -0.42149727017241       -3.79819827351638        0.12402890080180
C           -1.74326811217240       -4.16179108304107        0.05344092959562
C            2.40353495874534       -2.80583869080006       -0.55860147904572
C            3.68071638136257       -2.28120100475520       -0.65108996485942
C            3.91448620720699       -0.94098271941161       -0.28739900670494
H            0.33143974542906       -4.51363601935400        0.41379609432400
H           -2.04417457785937       -5.17550894032485        0.26363140276207
H            2.19834592860838       -3.80126989331483       -0.92075664281167
H            4.49378428106102       -2.87766360777477       -1.03017545652404
N           -0.96737558421227       -1.56711583869378       -0.49702567531549
N            1.62658584411781       -0.77988669232797        0.40511256674628
C            5.24005970218715       -0.33888644294383       -0.49073660742773
C            5.85987245106637        0.39581734323308        0.51644247384917
C            5.90127792813326       -0.52016143068350       -1.70351207226636
C            7.11077428117365        0.94588249698749        0.30705110783302
H            5.36911171614315        0.52015507716307        1.46956519785977
C            7.14754943946929        0.03971578455287       -1.91136101697776
H            5.42540817286663       -1.08414616046831       -2.49301786660464
C            7.75509681704336        0.77423244146434       -0.90672670657301
H            7.58340014264199        1.51133271666233        1.09566200878925
H            7.64546263721979       -0.09681958770447       -2.85993314539853
H            8.72946321291025        1.20986311759022       -1.06934152195788
C           -4.12664249259414       -3.58339437059961       -0.41321379116363
C           -4.90756134979030       -3.18385707010500       -1.49621938981756
C           -4.70590115662124       -4.36281548407832        0.58787494146834
C           -6.23808238613977       -3.55065844388864       -1.56890603909183
H           -4.46644589095642       -2.60457848239484       -2.29308648879376
C           -6.03825648502524       -4.71984651050691        0.51346447235360
H           -4.11356326785981       -4.66122700362909        1.44035946021208
C           -6.80821854519887       -4.31561013117718       -0.56489841206929
H           -6.83176244726740       -3.23804330767623       -2.41451657684748
H           -6.47845874782382       -5.31337085611226        1.30088638771747
H           -7.84899950880401       -4.59653394781023       -0.62244227220873
C           -3.13350925998197       -0.87414889927434       -0.99288409312417
C            3.00842960594085        1.15087701638710        0.59252507092709
N           -3.80282996183599       -0.01559766829868       -1.35011866584542
N            3.13941988007433        2.25179699565759        0.89560013999443
