73
 energy: -125.414877185338 gnorm: 0.000672261233 xtb: 6.5.1 (b24c23e)
Si           0.06305439677773        1.14460168852936        0.96955720468914
O           -1.33292038471899        2.27109765265616        0.56112139141404
C           -1.74553820729014        2.64010977062599       -0.55983270610141
C           -2.86206138257137        3.51856626547798       -0.71552550296988
H           -1.19739311491265        2.33135369741363       -1.45240570286328
C           -3.56801103462503        3.97861982392858        0.40824804367198
C           -3.26181268613192        3.93507071113075       -1.99441243878248
C           -4.63657178929031        4.83342325559573        0.25058667462116
H           -3.25173583124021        3.64715658457296        1.38510804322314
C           -4.33316851958921        4.78915091500529       -2.13866241354263
H           -2.72432318036070        3.57288652827667       -2.85732003001778
C           -5.02176751870954        5.24175566345049       -1.02001316385962
H           -5.17740735373791        5.18722842769302        1.11563243432126
H           -4.64149419493497        5.10864297404654       -3.12327715548122
H           -5.86033762094646        5.91175096916403       -1.13952884068837
C            2.19096671837272        1.21391025565010       -2.43717067601558
C            1.77385203389990        1.67477838428777       -1.29674029528794
H            1.66738854605927        1.42482176914049       -3.35556097588263
H            3.09178442807591        0.62651364997994       -2.52331524668249
C            1.31916607002371        2.08665127063097       -0.16024796214841
H            1.65081831988460        3.04372995383677        0.21871970754273
Cl          -1.51735979019011       -0.00719571855274        2.00006512409785
Cl           0.49690913446001        2.26526921764454        2.69354453248791
O           -0.27768874635120        0.08783483267862       -0.64041868179557
O            1.20400520599322       -0.23674736539361        1.45964719379605
C            0.15368980126390       -2.12130253739917       -0.14111458393152
C            1.57635295796748       -1.76161487229789       -0.24598591151828
C            3.30150018555583       -0.29515055871343        0.49036403754784
C           -2.06678838556017       -1.34650614850910       -0.48729027975037
C           -2.59321190029730       -2.58793697020873       -0.11988081907806
C           -0.32030578880383       -3.36345508044074        0.24820413054215
C           -1.70350828112815       -3.57805543573027        0.26953346461648
C            2.43186064075026       -2.34186622233273       -1.16633563162866
C            3.75807218157024       -1.89513714451519       -1.22917958501839
C            4.20607209238007       -0.87141643697522       -0.40460272601024
H           -2.08005164757342       -4.53843417396028        0.58451678578119
H            4.43648003450823       -2.34755001008480       -1.93522612466461
N           -0.72023254526686       -1.14026118800818       -0.46350680405010
N            2.02522375883026       -0.77326959949270        0.57217171390803
C            5.59217044993243       -0.38845116125730       -0.48698162830291
C            6.35527051164068       -0.20463120503979        0.66309318791581
C            6.16349916624634       -0.12692396841919       -1.73016940742948
C            7.65988163653061        0.24223191284607        0.56779527050062
H            5.93150057945272       -0.42712689787390        1.63025268080089
C            7.46500201721020        0.32891237197472       -1.81941733774091
H            5.57636278644292       -0.25603939761397       -2.62786754449840
C            8.21606636204653        0.51496516382964       -0.67083477127698
H            8.24271810806361        0.38050035533544        1.46549951090719
H            7.89310342184841        0.54173063682179       -2.78764802484554
H            9.23242784576270        0.87170914325300       -0.74158046720282
C           -4.04244716877386       -2.81545861987509       -0.12540966008813
C           -4.83192519665430       -2.38227107651501       -1.18808285811926
C           -4.64350903420949       -3.48208797855637        0.94027912888727
C           -6.19445225399762       -2.61591508180542       -1.18380631039044
H           -4.37598912053019       -1.87769232579755       -2.02690105050653
C           -6.00718942287771       -3.70556815882742        0.94297744843811
H           -4.04162202051251       -3.79176635011479        1.78107952256353
C           -6.78536941656379       -3.27676137661811       -0.11980555811161
H           -6.79664079915467       -2.27927535774465       -2.01421864059666
H           -6.46543925571614       -4.21319219478285        1.77857773627483
H           -7.85032621792819       -3.45438432575778       -0.11736936543339
C           -2.80604153863324       -0.22474208571920       -0.88628417445876
C            3.65030282864339        0.79394081140505        1.30917402386977
N           -3.30523234448341        0.73873707236266       -1.27245210593402
N            3.98457039709176        1.67483928867941        1.96537836240311
C            0.60052514204355       -4.45640021004141        0.68949686445606
H            0.59601065269605       -5.27300587158111       -0.03184388433093
H            1.61822325092447       -4.09748199817880        0.80931161992565
H            0.25747356882962       -4.85527367565643        1.64186671131619
C            1.97666669306365       -3.40093632036013       -2.12047564072157
H            2.34280568189136       -3.17444344048497       -3.11979128457278
H            2.38570114347025       -4.36844664087899       -1.83152363628717
H            0.89409494406721       -3.47578083580956       -2.15254194189979
