73
 energy: -125.423005022621 gnorm: 0.000939792859 xtb: 6.5.1 (b24c23e)
Si          -0.08675293164863        1.83108936089369        0.62553060813812
O           -0.98494070533736        3.07684607857362        0.06510327432870
C           -1.91642175096301        3.17018735012189       -0.89995749891553
C           -2.91555782989105        4.13391979547933       -0.84539103146382
H           -1.85736934350510        2.46129262552525       -1.71450129900638
C           -3.00814280242808        5.05102807724938        0.23376914722555
C           -3.88687966112147        4.22046387863976       -1.87582385090844
C           -4.00841568293710        5.99004836318395        0.26813144043265
H           -2.27370180355601        4.98968598414616        1.02205498267202
C           -4.87900242785689        5.16721189196380       -1.82127584449673
H           -3.82927623170975        3.52655122268077       -2.70165000633416
C           -4.95061859221157        6.05961257330374       -0.75438643815752
H           -4.06677274237346        6.68267743352036        1.09598098090760
H           -5.61221843308490        5.22344171208810       -2.61357253036664
H           -5.73344818594292        6.80205493668880       -0.72095563688526
C           -3.71697707446515        0.45391450089281        0.20636660379226
C           -2.51294167239355        0.42978553695715        0.67822698650899
H           -3.99304953320032       -0.06385839984392       -0.69745948744462
H           -4.50153393978954        1.00036138592051        0.70326484626185
C           -1.29414901542040        0.46746521109363        1.12622480175496
H           -0.94238051476247       -0.27257469754358        1.83008589572070
Cl           1.17410698490417        1.29008843676644       -0.87009334008668
Cl           0.88176184624847        2.66118669423943        2.15811326078189
O            1.45964870609261       -0.53307994842403        1.67860574713974
O            0.05674791348763       -1.51854705736822       -2.03809056586840
C            1.81135694464564       -1.94030517798743       -0.07583262693036
C            0.39870383772543       -2.34299590364132        0.05941426372855
C           -1.74338765632392       -2.30420634160960       -0.90804260144845
C            3.50466955497055       -0.50523940630920        0.69503512770423
C            4.38688419464974       -0.96119410102606       -0.28646650553836
C            2.65358771711605       -2.44796999309975       -1.05949678189264
C            3.94369165119517       -1.94454926844954       -1.15993245520205
C           -0.10779442910155       -2.94331855187924        1.20794132844849
C           -1.47149944684739       -3.19847397462225        1.28989353178928
C           -2.31030398354581       -2.87146173086135        0.23477163089584
H            4.61229727860733       -2.32663608658372       -1.91501422768277
H           -1.88150063798567       -3.66093583101895        2.17365244664631
N            2.23734655771594       -0.98671111723728        0.79339141952006
N           -0.40795963023104       -2.04041301962989       -0.99571865444481
C           -3.75990693483864       -3.09732526556106        0.31522708089953
C           -4.45199492876215       -3.72750558492454       -0.71489211925650
C           -4.45551298652780       -2.66826052715812        1.44317325439014
C           -5.81842732270008       -3.91619018399166       -0.61960874344927
H           -3.91818514774673       -4.08464587521690       -1.58284420261701
C           -5.82265066436758       -2.85056903988598        1.52824790017023
H           -3.92318123650224       -2.16330998911423        2.23550085281989
C           -6.50691311379711       -3.47408487926551        0.49765523554093
H           -6.34664394931969       -4.40747633701392       -1.42254315490000
H           -6.35608309554983       -2.50260620463285        2.40012888621089
H           -7.57502405237173       -3.61511197564101        0.56536908925333
C            5.74612185402888       -0.41364093474841       -0.39691368071420
C            6.56446036348527       -0.27584556228839        0.72082584917950
C            6.23251444294948       -0.04074938392432       -1.64807300082388
C            7.84334149722210        0.23220534446597        0.58679297199140
H            6.20660250067667       -0.58265832412969        1.69202745385717
C            7.50872983645160        0.47393382900555       -1.77468850020202
H            5.59432741968494       -0.12937458502130       -2.51486852969623
C            8.31702559025021        0.61089894728091       -0.65818051542769
H            8.47098201018320        0.33394196790642        1.45901837211804
H            7.87275886349762        0.77052901292125       -2.74701699665389
H            9.31409350355417        1.01244229762442       -0.75857017266272
C            3.85151098084024        0.51664369619330        1.60827616107386
C           -2.52095779466240       -1.90707123228657       -2.01785022713946
N            4.14301581973752        1.34261568232274        2.34675699232919
N           -3.15839513321660       -1.57777179340613       -2.91212248204415
C            0.80151701360791       -3.29791341006196        2.33678250963113
H            1.72220577591988       -3.75178617884367        1.97319168224646
H            1.06684567433039       -2.38693656226190        2.87705778973438
H            0.31227362998435       -3.98064071358253        3.02546486628553
C            2.17496592661799       -3.50982252793339       -1.99068747137393
H            3.01006375826337       -3.98254588052836       -2.49937944474999
H            1.59779069616415       -4.26793768726836       -1.46324622431854
H            1.52477167412809       -3.04886758185801       -2.73705042307570
