73
 energy: -125.493949659183 gnorm: 0.000748010672 xtb: 6.5.1 (b24c23e)
Si          -0.07681143746209        0.97493462480643        0.34020801737566
O           -0.78427662321652        2.41191739493992        0.14669511556505
C           -1.83308581684642        3.08172823694401        0.80444854186212
C           -2.76655617958903        3.67224925547228       -0.21833685367580
H           -2.37820054877366        2.37646773979503        1.44055789301188
C           -2.25542012291504        4.24900665175860       -1.37342789226286
C           -4.13814067918058        3.66280430785801       -0.00892479660560
C           -3.10673053584124        4.81127442627645       -2.30692606001279
H           -1.18888419991572        4.23538553791185       -1.53966575268570
C           -4.98789060600725        4.23262608172525       -0.94030627028177
H           -4.53931593592973        3.20057343753180        0.88129497872600
C           -4.47427160428999        4.80888978446512       -2.08950786912967
H           -2.70195389051825        5.25346899935775       -3.20587503939214
H           -6.05488417649886        4.22060384249772       -0.77112845958875
H           -5.13921125768415        5.25068221200576       -2.81765497931345
C           -1.21805183668819        4.19135244069963        1.68397924822084
C           -0.20140611769321        3.63080138289066        2.54804096783350
H           -2.00979264260216        4.66332327175162        2.27026228935282
H           -0.75764610529833        4.94083037283037        1.03395111952155
C            0.66273925717382        3.09813398535145        3.18196139773337
H            1.42809162513196        2.66460969085192        3.75328891245015
Cl          -1.42766760512721        0.22241686979641        1.85670496090275
Cl           1.53495403221386        1.76661121829574       -0.83952975481233
O           -0.51346193750064       -0.10634952395145       -0.92472583445930
O            1.02942031310574       -0.13383906945879        1.16921912273667
C            0.26332239278102       -2.25046579261480       -0.32916670419117
C            1.62626866611336       -1.74790358834392       -0.41132639201471
C            3.23344228707963       -0.18181510095726        0.44329313138535
C           -2.08735574828491       -1.73402602324277       -0.41746053180377
C           -2.42391473698294       -3.02829473005041       -0.05686512885227
C           -0.04777910828129       -3.55798042730093        0.04192737093029
C           -1.37872666150040       -3.93639206742963        0.17040475742920
C            2.58992631964454       -2.24796298200555       -1.28825185382646
C            3.86542972199230       -1.70301654695616       -1.28225024171885
C            4.21905399935588       -0.67229637476441       -0.39795230556455
H           -1.61586507887301       -4.94030226395999        0.48462003878926
H            4.60077590252756       -2.06769554960842       -1.98188612476416
N           -0.77997054471275       -1.39491476321468       -0.60009127942751
N            1.99212835360337       -0.73161457449475        0.43749784228258
C            5.56856245156669       -0.09759445228639       -0.40168354006548
C            6.25884045984637        0.12640159819372        0.78718982224579
C            6.17595764192621        0.22784435843945       -1.61287568503564
C            7.52890507288287        0.67138166406669        0.76201738734351
H            5.80677184720023       -0.14262423790969        1.72993059320744
C            7.44217174305602        0.78060176490550       -1.63112796023601
H            5.63547433597783        0.07973652754394       -2.53574560439765
C            8.12210446943409        1.00279954464378       -0.44479662575598
H            8.05602888671292        0.83991335918163        1.68886314576628
H            7.89844749643168        1.04342366833100       -2.57394174519791
H            9.11112895406882        1.43523054091780       -0.46096968602672
C           -3.82515759090519       -3.42718975096993        0.11767210062346
C           -4.78715818995513       -3.09413656878968       -0.83319605886201
C           -4.20364198869184       -4.16124406333095        1.23993207108489
C           -6.10166141678279       -3.48430253645181       -0.65888311513976
H           -4.50097343896587       -2.54475033699846       -1.71723917416540
C           -5.52104986649479       -4.54080835703705        1.41306594877516
H           -3.46731471341753       -4.40320220276756        1.99184580028499
C           -6.47265675729291       -4.20496578454132        0.46414761687134
H           -6.83877757845934       -3.22277986463715       -1.40275226122119
H           -5.80696276762324       -5.09785940893178        2.29279163652097
H           -7.50116405829658       -4.50330285732500        0.60052375397860
C           -3.03888799352739       -0.70905414150402       -0.60335204867498
C            3.44023127079917        0.87704384441935        1.35439284574769
N           -3.81581079615361        0.11520667261586       -0.78594901683482
N            3.61403642555738        1.69384508961140        2.13996954656740
C            1.01592475835010       -4.55032169501127        0.39722086708315
H            1.08762917772236       -5.31595894405674       -0.37417609607779
H            1.98622449135446       -4.07899472971059        0.51615414367925
H            0.75197667933870       -5.04678627468597        1.32874330799773
C            2.25626727523907       -3.29961918847614       -2.30044450073223
H            2.58936014981580       -2.97169441841597       -3.28313338382740
H            2.77817319488482       -4.22707541554003       -2.06908604004586
H            1.18941924186892       -3.49442179096033       -2.34252962721139
