73
 energy: -125.498765129331 gnorm: 0.000909974905 xtb: 6.5.1 (b24c23e)
Si          -0.49683120273146        0.92465221393528        0.77452926047957
O            0.08560061908831        1.89573143973243       -0.37588150832810
C            0.21789757084245        3.30148109902508       -0.35411984683571
C           -1.11719381397823        3.96732198771165       -0.14929998278767
H            0.90338827511908        3.57478551300540        0.45842323894107
C           -2.25273420981853        3.43504966790150       -0.74511396344376
C           -1.22689208698439        5.10693708622599        0.63460706243038
C           -3.48677911417997        4.02798196486535       -0.54945960872637
H           -2.17209195341770        2.53969178031342       -1.34384683285545
C           -2.46022411291917        5.70529143189791        0.82052412782809
H           -0.34652644609756        5.51277896801925        1.11070775605317
C           -3.59166443021417        5.16624861802184        0.23124730527694
H           -4.36443466618330        3.59438674834277       -1.00481481362782
H           -2.53991410533046        6.58841768380562        1.43733093880708
H           -4.55516503046557        5.62935231586687        0.38659608927362
C            0.82347882289873        3.71681036392272       -1.70619807440847
C            2.14828969986394        3.16224773038617       -1.88036872899499
H            0.87218997108237        4.80768673253305       -1.74974792070819
H            0.16867630071636        3.35581144234864       -2.50322447525182
C            3.24006012247732        2.68702888734157       -1.99849284822103
H            4.20586002832847        2.29195505005869       -2.10672983133664
Cl          -2.44312761997917        0.41860007663063        1.33137806587503
Cl          -0.24182568095096        2.16624858876788        2.47375025646104
O           -0.67851553876199       -0.25123368097890       -0.72505967091894
O            0.63106749004567       -0.19805807043189        1.41555373701923
C           -0.16610157254062       -2.39961433065314        0.00050193862390
C            1.21659275012902       -1.98198390371727       -0.02746154920431
C            2.72511905375358       -0.14450328064250        0.38367696126124
C           -2.39214816861511       -1.78374528324362       -0.60585056540695
C           -2.88776409007580       -3.02426454642437       -0.22807624208115
C           -0.63736529727371       -3.64123928642807        0.45528650027895
C           -1.98269625025970       -3.92989265176217        0.35505153321698
C            2.21731651010739       -2.63606817423639       -0.74537343081802
C            3.46673230693644       -2.04150989488799       -0.87126292509031
C            3.73015659033118       -0.77086221524389       -0.33265041418257
H           -2.35284676860534       -4.87449954772838        0.72169910480437
H            4.23471652747620       -2.53683645539262       -1.44343228020983
N           -1.08296881756066       -1.48833805651883       -0.45903924837726
N            1.53999378298106       -0.79307607110042        0.59482380230702
C            5.02011921374351       -0.10974265408945       -0.56521954128264
C            5.70495490083706        0.51688513197236        0.47331712682463
C            5.57700893132002       -0.10907181864705       -1.84343950363914
C            6.91533517275735        1.14026327763924        0.23294321035266
H            5.29575910657644        0.50225242385925        1.47172360504585
C            6.78387011587020        0.52251399352171       -2.07955330504682
H            5.04220206905864       -0.57552479526597       -2.65831714035273
C            7.45564091964592        1.14912579280301       -1.04238681606032
H            7.43683769278443        1.62311664273837        1.04511652739347
H            7.19834901916176        0.53074070305346       -3.07695069266541
H            8.39713502796597        1.64329346159196       -1.22878299000046
C           -4.30490408097090       -3.36505555816808       -0.38319350443722
C           -4.98202834906144       -3.10775873304084       -1.57354470615783
C           -4.99064090673510       -3.96800563559168        0.67036527318351
C           -6.31765819936465       -3.43963460150840       -1.70066516557788
H           -4.45653867357037       -2.66471099180115       -2.40571096904338
C           -6.32774475810197       -4.29017215942022        0.53992618474548
H           -4.47989338927198       -4.15060678571450        1.60413169956310
C           -6.99496158543458       -4.02769101885623       -0.64536185804990
H           -6.83145901254609       -3.23689589018808       -2.62806120939097
H           -6.85231104935083       -4.74416958746101        1.36739299280978
H           -8.03980359334948       -4.27989540460950       -0.74550049809439
C           -3.19556655020410       -0.77029485421930       -1.18624624619915
C            2.85859079415356        1.15742635388056        0.90274259894198
N           -3.82446308145442        0.01484507154945       -1.73443158722544
N            2.98643448517784        2.21473099353989        1.33165941780112
C            0.27881198433339       -4.61460638901646        1.12933137470131
H            0.41951221343225       -5.50184346907588        0.51397843727495
H            1.24651132642127       -4.16888205437290        1.33743199002520
H           -0.16673351313829       -4.93546735357591        2.06905431636985
C            1.95717448152239       -3.91490515079933       -1.47985047651585
H            2.44634511277538       -3.88368359684235       -2.45095466178944
H            2.37430543275039       -4.75699009727392       -0.92913241043002
H            0.89555529704684       -4.08532518789490       -1.62866439018520
