73
 energy: -125.500729971863 gnorm: 0.000754795357 xtb: 6.5.1 (b24c23e)
Si          -0.08280440196902        1.47426773367731       -0.28056779917524
O           -1.57360174737483        1.00727528598395        0.18260717506610
C           -2.47638770786595        1.66238370101203        1.05062938664156
C           -3.06803198074433        2.89409062092252        0.41757346216422
H           -1.93555577803620        1.95280132398610        1.95884880238146
C           -3.43706898200735        2.89464553434043       -0.91993942799559
C           -3.24275391820928        4.04460588724870        1.17496517464845
C           -3.96977977877627        4.03518559886835       -1.49437347964410
H           -3.29420211047138        2.00535450688426       -1.51544011805948
C           -3.78180921080325        5.18115690498545        0.60060161319080
H           -2.94067622371801        4.05195456650836        2.21188380578977
C           -4.14468588876641        5.17937573331080       -0.73582545902557
H           -4.24576970357125        4.02724468293225       -2.53816889653838
H           -3.90832886342361        6.07395831964696        1.19516286862637
H           -4.55734769028329        6.07054087941488       -1.18563062510940
C           -3.57218796615110        0.64565742894230        1.42227522779731
C           -3.00517035894718       -0.42934110108232        2.20507179386835
H           -4.02341054204798        0.25164520204040        0.50794654685566
H           -4.34286398018831        1.15691745752368        2.00402418883362
C           -2.46418309516334       -1.28076387645116        2.84950430978223
H           -2.01969681956578       -2.02501281521900        3.44024131184383
Cl           0.35998668717821        2.43002989945771       -2.02109087820208
Cl           0.16272543025056        3.12254251174116        1.01904495136839
O            1.13724718783352        0.66054401368828        0.61593369951078
O           -0.11429721126223       -0.08785863302954       -1.41430857040281
C            1.77847080610769       -1.49559804287208       -0.17128306519182
C            0.40280771175697       -1.92070942153439       -0.08660310846476
C           -1.80615760938814       -1.56900914662521       -0.90343687941680
C            3.31045438639800        0.36868937871763       -0.15604931380624
C            4.36426485131472       -0.44666831178926       -0.52814299985773
C            2.82124484637305       -2.33004664471057       -0.58421527242573
C            4.09827008023516       -1.81151518412684       -0.73768725165217
C           -0.05993015070869       -3.00957386057425        0.67531576138739
C           -1.38673358935655       -3.37416621712963        0.59823468148638
C           -2.28777881969087       -2.68677655945746       -0.23445280700408
H            4.89837465550178       -2.45623838450187       -1.06398620304576
H           -1.74925215068547       -4.20301330900885        1.18591743155453
N            2.07400553083986       -0.16863370317130        0.07701848189607
N           -0.51249153454434       -1.20199377348023       -0.81128907164667
C           -3.68617323498172       -3.10676598893450       -0.35690704447683
C           -4.30362456583510       -3.18485127287173       -1.60431969922992
C           -4.41409355117220       -3.44932450664483        0.78187325544812
C           -5.62104985583912       -3.59000998484144       -1.70598060027652
H           -3.74441017855740       -2.94743266028276       -2.49681260107266
C           -5.73300646852526       -3.84593812144234        0.67422950553020
H           -3.95296395616715       -3.36067355452152        1.75346155164123
C           -6.34001091862388       -3.91938566612706       -0.56887342015876
H           -6.08737514682717       -3.64899786927102       -2.67761276882227
H           -6.29040353620596       -4.09581402116109        1.56457530859126
H           -7.37006747981715       -4.23151489020996       -0.65084242077135
C            5.71549816144001        0.09245301045172       -0.72381854571326
C            6.28353188347037        0.94862152128101        0.21715114858037
C            6.45830294971116       -0.27321565449626       -1.84469056984923
C            7.56460575460509        1.43359475462049        0.03320513264343
H            5.72766886558780        1.21921312984930        1.10173609980076
C            7.73583033394345        0.22092328193246       -2.02719302644301
H            6.01904080728464       -0.92178457997044       -2.58831084764502
C            8.29254744121135        1.07443158511015       -1.08898350595909
H            7.99498157894711        2.09481558600536        0.76947836381566
H            8.29777083318118       -0.05871825193381       -2.90575983823237
H            9.29113299885249        1.45849841846976       -1.23253505724884
C            3.45416927192883        1.76447341270110       -0.02057211531986
C           -2.64129728567556       -0.74374190537411       -1.69031365795775
N            3.60027785335192        2.89802506942572        0.07812922098419
N           -3.33230495981152       -0.09702020342659       -2.33650851060659
C            0.84079643864742       -3.71747991845709        1.63963110108387
H            1.03927437886067       -4.73562200956012        1.30890138717400
H            1.78360813936162       -3.19365163920813        1.76242509637236
H            0.34998365556017       -3.78148464547896        2.60893406223103
C            2.58761322204901       -3.75858685938924       -0.97036988671919
H            3.12161175107679       -3.97273728158878       -1.89395303452789
H            2.97795434750406       -4.42776875420896       -0.20508488692271
H            1.53415811139881       -3.97145771750890       -1.12115064399536
