73
 energy: -125.494495995108 gnorm: 0.000640001635 xtb: 6.5.1 (b24c23e)
Si          -0.17573569402572        0.96714040317479        0.38801676261302
O           -1.19535696977481        2.14526648784963       -0.09336480801762
C           -1.15688385482999        3.53388330811133        0.08746067215090
C           -2.32614130976169        4.16922526438280       -0.62146630273716
H           -0.21320048546634        3.91856206536533       -0.32980382408704
C           -3.52267443981267        3.48132745597244       -0.76280110895181
C           -2.22375720896530        5.46949830236845       -1.09913540544209
C           -4.60201648910180        4.08766892588454       -1.38133902336035
H           -3.59432506825146        2.46708903525048       -0.40213134267834
C           -3.30641141470878        6.07523816821741       -1.71081259797994
H           -1.29102977436356        6.00623494893335       -0.99332840366716
C           -4.49851525293692        5.38488795547409       -1.85305766631470
H           -5.52773124492203        3.54268567680173       -1.49180365683672
H           -3.21842107380795        7.08680721767502       -2.08042162914214
H           -5.34248890162764        5.85844455488179       -2.33372490032959
C           -1.20970132740717        3.89425265175747        1.58860548818113
C            0.02379184225246        3.51600612069401        2.24131246311456
H           -2.04868330502444        3.35867197809283        2.04028530628124
H           -1.37313043244925        4.96993089342606        1.69050171569390
C            1.06855479243661        3.17346348115465        2.71556478795311
H            1.98221732628761        2.87023755847912        3.13391676128889
Cl          -1.26392566917043        0.42315474999318        2.08200794773272
Cl           1.55613366000390        1.88465522078349       -0.42159778767721
O           -0.58648165197436       -0.10189117243828       -0.88168674313992
O            0.97522514673549       -0.36722407165960        1.12104336186068
C            0.15357548453852       -2.31577027982722       -0.50022043936971
C            1.51921350655427       -1.83582600585496       -0.59138734109491
C            3.17403257468581       -0.42663762586961        0.40276695121115
C           -2.17643199795348       -1.71701860794979       -0.33606206342763
C           -2.52806465230672       -3.03273151272168       -0.08419640720794
C           -0.17666638053755       -3.64518115734911       -0.24953341802055
C           -1.50837492488890       -3.99502653929088       -0.05144171244823
C            2.45996006751984       -2.27464542802760       -1.53037635932230
C            3.75160378295815       -1.78389767138227       -1.47429977042824
C            4.14807312433252       -0.87804091345566       -0.47618453073296
H           -1.76116107863484       -5.01954231941956        0.16955405007113
H            4.47490850055436       -2.10340071518467       -2.20798363118932
N           -0.87151480726654       -1.39843933259063       -0.59551005325380
N            1.90621753786338       -0.89198157636939        0.32495523365102
C            5.53254443547642       -0.40178509970294       -0.39096220992741
C            6.20253564920130       -0.36359672524460        0.83011418782636
C            6.19986990705831        0.00575757900950       -1.54461140863189
C            7.50948924322598        0.08141716787455        0.89368245588663
H            5.70497371640837       -0.70092309677632        1.72677897310485
C            7.50364800398437        0.45781979222030       -1.47343701331149
H            5.68078201092415       -0.00103246188266       -2.49153458621651
C            8.16209605767233        0.49633261111556       -0.25529048976194
H            8.01940473623590        0.10483717684638        1.84477796598210
H            8.00701309091861        0.78446405516238       -2.37117644771957
H            9.18078064132439        0.84947068904225       -0.20173405626814
C           -3.92362317661658       -3.41111217326580        0.17398830875557
C           -4.94928682440250       -2.98728279304051       -0.66711467714517
C           -4.22943225756022       -4.22248924576770        1.26432787786911
C           -6.25538275926695       -3.36355446985770       -0.41504260354671
H           -4.72055196629452       -2.37737959150425       -1.52772342135924
C           -5.53813732713253       -4.58760476104197        1.51681132915204
H           -3.44069375828743       -4.53917924258353        1.93067272263387
C           -6.55385222587061       -4.16026918614340        0.67761863611041
H           -7.04293388673199       -3.03161254111797       -1.07431663387859
H           -5.76638378717314       -5.20542220275813        2.37242247899705
H           -7.57556988493534       -4.44725387542477        0.87546829774432
C           -3.11934105033454       -0.67228634509740       -0.34673973290216
C            3.43504690212988        0.52142711505984        1.41970138099366
N           -3.91928923338139        0.15032111410232       -0.38560806301342
N            3.66673444257330        1.24424542719673        2.27816605230787
C            0.86907082665425       -4.70522548054172       -0.08988681749242
H            0.87876808918305       -5.35690130895723       -0.96268133308948
H            1.85941973844722       -4.28187250668457        0.04350776611933
H            0.63253360791687       -5.32030131182564        0.77580324727098
C            2.07363326050446       -3.19927372491389       -2.64241590948742
H            2.41598513064396       -2.78606359771563       -3.58929208168517
H            2.55105914133940       -4.16982956456882       -2.51642916720113
H            0.99791356920072       -3.33684591632189       -2.69097960301957
