73
 energy: -125.416758441666 gnorm: 0.000808453788 xtb: 6.5.1 (b24c23e)
Si           0.46410178563927        1.82925582336455       -0.41104665063769
O           -0.99765891404491        1.37168225028311        0.57494053415644
C           -2.21662725088456        1.55679549599199        0.25931767546755
C           -3.29080062898841        1.15336047962899        1.10553611536376
H           -2.44772444861085        2.17233242624352       -0.60860038878516
C           -3.04405532115986        0.50139681568348        2.32665026506819
C           -4.61879377603343        1.41426972023448        0.72736192314924
C           -4.09236625738393        0.15569770711043        3.15012944234099
H           -2.01978515462970        0.31126307980957        2.60997784605393
C           -5.65721785032586        1.05504283516760        1.55651001139701
H           -4.80807004410830        1.89902007924333       -0.21841327178773
C           -5.40028545992523        0.43204832428842        2.77189649734415
H           -3.89794881750012       -0.32805975377897        4.09660750148151
H           -6.67585631092325        1.26143550956306        1.26422844295565
H           -6.21838277960178        0.16287927186392        3.42303377092441
C           -1.48012022375756        5.12454433275450       -1.31365779982925
C           -0.90948174726382        3.99571225892983       -1.59083492666793
H           -0.92577440976708        6.04810449472712       -1.32091543300259
H           -2.52965601578630        5.19210763990571       -1.07628449949876
C           -0.32474596762604        2.86116181532382       -1.80160527485157
H           -0.26583410159536        2.46566552366338       -2.80536405215733
Cl           2.46020613628506        1.69132225149802       -1.27719006627456
Cl           0.91728278680771        3.27107307970856        1.02460419227247
O            1.23604962411847        0.44572232620138        1.10144229505888
O            0.15418833697593        0.21440075636096       -1.32190511228333
C            1.50499400962474       -1.55025949022458        0.07240855129418
C            0.02977069351419       -1.62066023917484        0.06199600117807
C           -1.94446580135745       -0.73328852216384       -0.94552415081109
C            3.36312111825381       -0.24774536588943        0.68955665935799
C            4.24148114512875       -1.17827128338406        0.13123561011969
C            2.32577870054482       -2.50502337037513       -0.51700205199648
C            3.69894229277272       -2.29859354207736       -0.48677051584618
C           -0.70337291461373       -2.55076164788376        0.76892160246612
C           -2.10141392792839       -2.54912336987865        0.61303077839461
C           -2.73110254016304       -1.68995784176079       -0.26217635900415
H            4.35661526854858       -3.02109831465429       -0.94498986241191
H           -2.68197238483933       -3.28080472818265        1.15208515411612
N            2.02922817163742       -0.44554445575061        0.63856718308924
N           -0.59003034457475       -0.70748110168873       -0.71572997230604
C           -4.18285629665230       -1.77902538938340       -0.46964938926650
C           -4.74917036654936       -1.66570236639420       -1.73760765947301
C           -5.01861448808220       -2.02271313473117        0.61961174025587
C           -6.11830548070103       -1.76226814706424       -1.90276186064773
H           -4.11916456625458       -1.52310664826628       -2.60088661599410
C           -6.38608002847019       -2.11357195543634        0.45004427518777
H           -4.59561485923566       -2.10711034933955        1.60868956142056
C           -6.94193464770743       -1.97725159880554       -0.81087720673284
H           -6.54173883764151       -1.66979435942930       -2.89121102806609
H           -7.01989664681615       -2.28892732952162        1.30633386833941
H           -8.01126273096302       -2.04399399245493       -0.94254258744593
C            5.69431843121189       -0.96597100269698        0.17042651509838
C            6.33996466016774       -0.62484426311516        1.35580018228358
C            6.44192511079097       -1.12247965281244       -0.99432101193506
C            7.70989106883838       -0.44001897987804        1.37100058055521
H            5.77283565561704       -0.52094030261262        2.26815563767908
C            7.80960082780022       -0.92580612672816       -0.97464555924269
H            5.94096610074283       -1.36248506542558       -1.92011534975457
C            8.44652990715985       -0.58604468066908        0.20750314399122
H            8.20230244874797       -0.17710880888840        2.29465333166426
H            8.37963218130559       -1.03459930456387       -1.88503151841871
H            9.51495116615444       -0.43280098953610        0.22113150172590
C            3.80749867627967        0.93759777267803        1.32695981150699
C           -2.42679272128311        0.11735395680999       -1.94772507877601
N            4.19591311125172        1.85463512242118        1.89026956875400
N           -2.80387698794765        0.76872073393844       -2.82104471099546
C            1.76163853545310       -3.71824689351235       -1.18496069612595
H            1.87538808048919       -4.58795666332664       -0.53795878731130
H            0.70710539986927       -3.59451719746030       -1.41422569542759
H            2.30285852375449       -3.91759125877871       -2.10684813538184
C           -0.06094756990002       -3.54454926635134        1.68380676185316
H           -0.55873114838803       -3.52661588360872        2.65177693247283
H           -0.16242569920752       -4.55188607090520        1.28003491908073
H            0.99375751370758       -3.33050817482957        1.83111189422451
