73
 energy: -125.500326366867 gnorm: 0.000378365395 xtb: 6.5.1 (b24c23e)
Si           0.52668721527419        1.91127649711006        0.07019969984976
O           -1.02712971596760        1.51517828612038        0.10743156137171
C           -2.28270645476677        2.06054807211659        0.43814571911838
C           -2.88809242570354        1.27209024022851        1.57672109444153
H           -2.90617009746013        1.95471660750290       -0.46119908563303
C           -2.08351406892480        0.63812637705571        2.51320378599604
C           -4.26934499439740        1.21223210119694        1.71459562091620
C           -2.65262499883620       -0.04747625739138        3.57212029384034
H           -1.00983448941919        0.68208988692770        2.41195504971801
C           -4.83596159800877        0.54209286797031        2.78330130687830
H           -4.90052723036114        1.69219642452456        0.98076825289560
C           -4.02861663619220       -0.09111565971923        3.71440001241680
H           -2.01712010169952       -0.53848652045995        4.29466794525659
H           -5.91032121171157        0.50789513231425        2.88546073602187
H           -4.47168585225022       -0.61777183770112        4.54709611438787
C           -2.22832110125839        3.55034653935287        0.81724165467826
C           -1.70863922019689        4.34056670039777       -0.27751319306770
H           -1.59423107512814        3.67939264905158        1.69701064745248
H           -3.24308497943525        3.87547998772540        1.06031868268489
C           -1.26623907025357        4.94768565541567       -1.20857112981756
H           -0.87864128377108        5.49838047791357       -2.01230996074616
Cl           1.19368805267292        2.51197229423154       -1.69910380564332
Cl           0.99156238715336        3.22099873902043        1.53227030055425
O            1.25377591896797        0.57062025347908        0.73018896672431
O            0.12486345543015       -0.25431879291444       -1.67826543055144
C            1.51915782481263       -1.66324489766345        0.00702152151448
C            0.05938211255821       -1.75248614713169        0.02318755467043
C           -1.91339068701419       -1.03526110752958       -1.04753126645874
C            3.40697390350726       -0.13919347811386        0.02495350719317
C            4.26996627648638       -1.20477806786778       -0.22655175840914
C            2.35916553899550       -2.71722759686543       -0.26129290896247
C            3.74761658487095       -2.48506067138345       -0.35444681668186
C           -0.68522194097399       -2.51252021012464        0.92640083136222
C           -2.06319367310190       -2.55577960984889        0.78963607793527
C           -2.70576268329623       -1.84323002632065       -0.21857689579642
H            4.40734770334531       -3.31311343760041       -0.55505184586990
H           -2.64416194304302       -3.16244311435742        1.46584597653054
N            2.05309815078566       -0.40501868409831        0.18256465244755
N           -0.56530756830063       -0.99152351293508       -0.92048177750614
C           -4.15604694485492       -1.93182580418671       -0.40432292109845
C           -4.71883180763053       -1.98180328336715       -1.67955460457495
C           -4.99914418328792       -1.99991367167296        0.70484384593808
C           -6.08857156489596       -2.07432841219006       -1.83703338634852
H           -4.08203321428380       -1.97114504232938       -2.55088176255536
C           -6.36781523920775       -2.08558983357600        0.54156237918401
H           -4.57864413141382       -1.95298219166539        1.69748680086793
C           -6.91850368962377       -2.11983085644309       -0.72910069845735
H           -6.50914365021979       -2.11302658049449       -2.83047994295171
H           -7.00809885203016       -2.12560594398666        1.41035672898924
H           -7.98862131883890       -2.18633436979329       -0.85527178519222
C            5.71577421556946       -0.97023910728684       -0.36423919491393
C            6.40790322662639       -0.20422373985282        0.56951678314098
C            6.41323503782848       -1.53990520397734       -1.42630911625384
C            7.77019099545387       -0.00910667740968        0.43756271511413
H            5.88079626066083        0.22648789153443        1.40719681933108
C            7.77395151010339       -1.33618228227995       -1.55789061874642
H            5.87879512727542       -2.12202495803480       -2.16279671914042
C            8.45574585340602       -0.57140854793986       -0.62602479387227
H            8.29724616760613        0.58577395020857        1.16806519473732
H            8.30357343893094       -1.77398919946211       -2.39109431335614
H            9.51888874354290       -0.41379940868388       -0.72923689074923
C            3.83097979697279        1.18517692524491        0.11130773011975
C           -2.45920155572962       -0.16320587335594       -2.01356870309345
N            4.17996174755879        2.28014338785142        0.20867092797255
N           -2.90564823122197        0.57091539778899       -2.77318247560044
C            1.84718270986844       -4.09966927673202       -0.52103045516647
H            2.08960780539282       -4.75210722513336        0.31759620078012
H            0.77250724769332       -4.11015359945614       -0.67547479916572
H            2.33151437472730       -4.50787459471042       -1.40605168078013
C           -0.02045071271636       -3.24872663868726        2.04620280791876
H           -0.59234904438950       -3.11313924133815        2.96183368062163
H            0.01801931962537       -4.31686010744652        1.83543227526313
H            0.99323353811246       -2.89051604076003        2.20303628031423
