73
 energy: -125.503174431088 gnorm: 0.000766907322 xtb: 6.5.1 (b24c23e)
Si          -0.12714481066010        1.28418550934244        1.65000189698648
O            0.85377315878853        2.15066678004386        0.75398870811483
C            1.07085144664468        2.46545054203926       -0.61721653439927
C            2.46563088599307        2.04068996550698       -0.99308815899509
H            0.33825707498007        1.92848947731857       -1.22290300724942
C            3.54401910491038        2.37358731079348       -0.18356372051816
C            2.68257738586760        1.30898615333578       -2.15286770138632
C            4.82287607772196        1.97654905950050       -0.52997024514316
H            3.37444937068615        2.91978942174577        0.73114783054801
C            3.96527054780588        0.93116666176335       -2.50764501596528
H            1.84035735174703        1.03946846378305       -2.77403089584090
C            5.03699393423802        1.26167573034460       -1.69553675035222
H            5.65322119849456        2.22594590931543        0.11266711617313
H            4.12903979597771        0.37650674468248       -3.42022411432633
H            6.03676423946820        0.95807215494076       -1.96845335809755
C            0.86700763419100        3.97773041626576       -0.79780890934575
C           -0.53443917223672        4.30631366457952       -0.63952312319707
H            1.20487563858478        4.26193222154794       -1.79767531580062
H            1.46541179121916        4.51080592984707       -0.05487104791950
C           -1.70643461581405        4.50104755835065       -0.50042310334021
H           -2.73410298965953        4.68036076981347       -0.39512966792194
Cl           0.41664085449634        1.71844700014563        3.52135463484954
Cl          -2.10578044878378        1.60367224984915        1.50362105795268
O           -0.88093159786291        0.32223403481616       -1.02306112843353
O            0.05618247354892       -0.37236718884081        1.57330975375802
C           -1.39806804541370       -1.73173842753887       -0.22181503439845
C            0.05493379315654       -1.93963120628501       -0.18936566378603
C            2.15734374190748       -1.09854890494449        0.68486885089802
C           -3.08758624626088       -0.20382916401361       -0.82102894060723
C           -4.08571209345057       -1.10311464328763       -0.42771848836374
C           -2.34701258755294       -2.65565984743079        0.20961365378587
C           -3.69018310526947       -2.32525754031226        0.10669965843852
C            0.72288147224774       -2.81229546258241       -1.00673388615675
C            2.13773372828066       -2.83656706379274       -0.97494548614711
C            2.84956945900714       -1.97807378947376       -0.15369462042198
H           -4.43978831255797       -3.02951832931425        0.43211081225356
H            2.66288287099847       -3.52280508124620       -1.61833103062880
N           -1.77602551597073       -0.51549932869168       -0.69523990794264
N            0.76552878168106       -1.13522619795295        0.67186912193452
C            4.32030002452571       -1.98087355050646       -0.17482026390273
C            5.06430461938247       -1.95648875126634        1.00124006910686
C            4.98856469861605       -2.03181798868719       -1.39566358190873
C            6.44599383883392       -1.96117398072831        0.95274206226810
H            4.56200451434065       -1.95059011960987        1.95603600025873
C            6.36959516072752       -2.03335568161059       -1.43987560765236
H            4.41898744952812       -2.04560885529565       -2.31261585730243
C            7.10259527754294       -1.99345814709099       -0.26573367161305
H            7.01148184335195       -1.94039786606730        1.87206497475051
H            6.87571397460808       -2.06380508915927       -2.39375984467880
H            8.18188727793037       -1.99177433443608       -0.30031476664644
C           -5.50558821412225       -0.75852448880328       -0.55960123305412
C           -6.00495214543277       -0.19313731048763       -1.73072216390841
C           -6.37892933358937       -1.01392977957429        0.49625508226603
C           -7.34819476255383        0.11464041910011       -1.83748031071629
H           -5.34454946301066       -0.01195528203279       -2.56523912668572
C           -7.71925042321366       -0.69734363110968        0.38662680766098
H           -5.99579103285078       -1.43296666768203        1.41493421069210
C           -8.20781278144071       -0.13285456385830       -0.78018617648688
H           -7.72468633630517        0.55054723600142       -2.75041309006368
H           -8.38449111647044       -0.88892003802488        1.21535543487128
H           -9.25535055915338        0.11404072297804       -0.86461723418924
C           -3.36854435155349        1.08517849016421       -1.32760465035610
C            2.78745327050337       -0.19720938227915        1.53432630269105
N           -3.58832773610902        2.12438197755780       -1.75765234187587
N            3.31215220785547        0.52785668645138        2.26387362383642
C           -1.92754478250121       -3.96793738342902        0.79047465307572
H           -2.02201903562720       -4.75973121729663        0.04768470941667
H           -0.89426345045325       -3.93379904566739        1.12535088420170
H           -2.56758471643374       -4.22338918597635        1.63181485840367
C            0.01052137045289       -3.70371221694629       -1.97538672809070
H            0.47538431676397       -3.62587774389664       -2.95656881630062
H            0.09137367975174       -4.74200997575558       -1.65366566865650
H           -1.04035055505181       -3.44521280893576       -2.06649577841610
