73
 energy: -125.502492518808 gnorm: 0.000901967065 xtb: 6.5.1 (b24c23e)
Si          -0.10607313960677        1.67113427271878        1.36203324854486
O            0.70852124092461        2.38533016823343        0.20084520529504
C            0.56086907490020        2.60278154400407       -1.19694096100755
C            1.51943557812322        1.70603824412985       -1.93385650473249
H           -0.46560755350264        2.36208766848846       -1.48540363915338
C            2.85428677331335        1.65420885779836       -1.55215841793840
C            1.07804998428219        0.91118938213416       -2.98205221392117
C            3.73620086584445        0.81397870007666       -2.20817299373872
H            3.19860488962504        2.26119693051398       -0.72866845516684
C            1.96104772748757        0.07135711761129       -3.63727993308348
H            0.03935998770211        0.94686480386958       -3.27220632324816
C            3.29034195058175        0.02172088332869       -3.25228214098657
H            4.77106386224972        0.77736935997776       -1.90039871558693
H            1.61081216278615       -0.54707738217098       -4.45136991144813
H            3.97926096628328       -0.62968864855849       -3.77098136549457
C            0.84233925698248        4.08837755527932       -1.46564283938775
C           -0.15362587397696        4.91123949145616       -0.81237622691712
H            0.82348498162930        4.26236052000404       -2.54434696060792
H            1.83332756232027        4.33909747129229       -1.07955399735735
C           -0.99583903214153        5.54144815782978       -0.24293554933133
H           -1.72454943633510        6.11470284547183        0.24690797412885
Cl           0.51947509863707        2.56341049044572        3.03924778483486
Cl          -2.11451521183969        1.79190081010992        1.33748284180892
O           -0.83508325685742        0.18281634062467       -0.87470247331611
O            0.25989922956989        0.07126426137864        1.66043510648162
C           -1.14254643852915       -1.76343985500642        0.24998046446956
C            0.31936655645909       -1.84487810507640        0.27329167719695
C            2.37071570344180       -0.68881357455530        0.85253425243568
C           -2.97195743538669       -0.52712979782813       -0.57614408786247
C           -3.88454855883080       -1.43419242139788       -0.02445313196254
C           -2.00630730364136       -2.68063466040330        0.85108628960718
C           -3.37381272996466       -2.49730484722570        0.71486485384132
C            1.03888608458194       -2.83432797918768       -0.34888015915135
C            2.44946800925439       -2.77095566468610       -0.34035990635137
C            3.11292294580678       -1.70475329034102        0.24733495119791
H           -4.05296822870815       -3.20000487863490        1.17173400740959
H            3.01217569730438       -3.55624244141553       -0.81721324738101
N           -1.63800483500942       -0.68194647982257       -0.40737999717131
N            0.98736512537338       -0.81474043043679        0.89696994216257
C            4.58229967869446       -1.64429980978927        0.23088844116171
C            5.30071454438409       -1.32644900972147        1.38022024831732
C            5.27593711797576       -1.94178295285001       -0.93976747091261
C            6.68274792487101       -1.29292720678799        1.35203650419029
H            4.77771463576746       -1.12106593008425        2.30156151293188
C            6.65708025758767       -1.89946502440706       -0.96551482481143
H            4.72366053013270       -2.18113646503552       -1.83596906258788
C            7.36436584511162       -1.57385524984143        0.18001144729750
H            7.22841964376844       -1.04594032646053        2.25002667640823
H            7.18398130956213       -2.12013776394710       -1.88230001617745
H            8.44346146087402       -1.54189956826203        0.15933697895232
C           -5.32856858660144       -1.25932106945536       -0.20808336925592
C           -5.86264271016444       -0.94543118650940       -1.45627194926600
C           -6.19061082069081       -1.42479998884820        0.87504447725387
C           -7.22766016853062       -0.79654163984852       -1.61298744462870
H           -5.20961570849571       -0.83765403050941       -2.30915001688619
C           -7.55352938335271       -1.26671504308722        0.71418980165890
H           -5.78404120210657       -1.64703891803779        1.85065627316267
C           -8.07634923390848       -0.95336771316218       -0.52979932803308
H           -7.62994393744861       -0.55641760421561       -2.58551844162773
H           -8.21037977169630       -1.38538275095640        1.56313473233008
H           -9.14169268640882       -0.83101343023066       -0.65432115011677
C           -3.35127595396637        0.61560557432495       -1.31541344173574
C            2.95742680400890        0.45068539155575        1.39496424677088
N           -3.62216686904061        1.53233346753470       -1.94791007781947
N            3.46205816375674        1.38074537169286        1.85558350256615
C           -1.47459408213766       -3.82544860310723        1.65337832294997
H           -1.54967656286377       -4.75433931525496        1.08879384838755
H           -0.43318274711150       -3.66659070379877        1.91930177447928
H           -2.06045647939214       -3.94261368998465        2.56244648032303
C            0.38104575932299       -3.95637983960771       -1.08990961936456
H            0.83855498891054       -4.05987992132047       -2.07222364080800
H            0.52950314454359       -4.89501906524074       -0.55645862925670
H           -0.68402118648186       -3.78915640476847       -1.21819723296974
