73
 energy: -125.508979627867 gnorm: 0.000592969223 xtb: 6.5.1 (b24c23e)
Si           0.36179416325062        1.07601968190241        1.36821143126185
O            0.71722126575087        1.17430857233254       -0.18102257752364
C            0.69086263923467        2.12410744892276       -1.23681419048606
C           -0.63631446947576        2.83522464836198       -1.29373634561541
H            0.81666468060025        1.50905338294643       -2.13570570475841
C           -1.02076116118692        3.71378468501337       -0.28720493254380
C           -1.51218512661926        2.57693312586096       -2.33955703927601
C           -2.26084529906523        4.32466129193403       -0.33019814686493
H           -0.36061781820543        3.91758951287298        0.54403726621793
C           -2.75179651074973        3.19075358400132       -2.38272362719702
H           -1.23033434341985        1.87288568061783       -3.10734602939472
C           -3.12771391149331        4.06566470252008       -1.37854564179580
H           -2.54992487988530        5.00118600633965        0.46049934228381
H           -3.42798733299907        2.96890804284539       -3.19346587527503
H           -4.09694568176584        4.54067351336246       -1.40774196711662
C            1.87106936673474        3.09672787227850       -1.09389861561451
C            3.11075021708940        2.38472132559823       -0.86177627048959
H            1.69605446484384        3.76793537794370       -0.24940413336654
H            1.94244415891208        3.69275081838935       -2.00684064971200
C            4.11172442589247        1.77615085676990       -0.61895487844336
H            5.00371955709969        1.26382192551651       -0.41360164383368
Cl          -1.62249457370583        1.05638288983663        1.73664817009057
Cl           1.27957496867057        2.39237463166269        2.56055940155895
O           -0.79886785067746       -0.55917346166761       -2.00422016721162
O            0.87326434112478       -0.44523663058259        1.75707791951415
C           -0.66933438033861       -1.75994123921311       -0.06052237577832
C            0.78324562418068       -1.79645337064542       -0.21004420022928
C            2.89834177863462       -1.20379111235974        0.79872082417003
C           -2.73360420516085       -1.00523212963451       -0.91374377882379
C           -3.42606186898569       -1.53230220357448        0.17650849210149
C           -1.32121914582925       -2.32621883207108        1.04005868423079
C           -2.69429503353313       -2.19672024390746        1.15511379680351
C            1.43984479944003       -2.29426899935854       -1.31360570149391
C            2.84384925357436       -2.23621478727248       -1.36459580625091
C            3.57412773575969       -1.68034828571023       -0.32099147666922
H           -3.20918362640886       -2.63708091351774        1.99403427891237
H            3.36005389537487       -2.63933812054776       -2.22022361715587
N           -1.37891026740992       -1.09822063159749       -1.02384821817320
N            1.51332130302502       -1.33336349562002        0.87763607056796
C            5.04009020449054       -1.59797352107371       -0.39491960704646
C            5.83862159385162       -1.97601327832588        0.68111606226358
C            5.64749635349741       -1.14525437224490       -1.56483121000989
C            7.21596214207716       -1.89157797770455        0.59034167461479
H            5.38016330266240       -2.34890156205581        1.58443275453614
C            7.02455469336553       -1.05652874105981       -1.64825847349451
H            5.03186295276146       -0.83409484455409       -2.39630221310702
C            7.81205968789395       -1.42877661603836       -0.57094054248894
H            7.82538860071338       -2.18700139472609        1.43101911474897
H            7.48412465476497       -0.69214314096722       -2.55524806560858
H            8.88743517987019       -1.35808047930222       -0.63688334907177
C           -4.88362174860542       -1.39765911935313        0.28715235585020
C           -5.72165332312324       -1.70383284977461       -0.78171559558037
C           -5.44163860629931       -0.97671572654448        1.49233784594414
C           -7.09241705375810       -1.58642211241892       -0.64580851685960
H           -5.30091716145692       -2.05244762215673       -1.71296828124046
C           -6.81214729127868       -0.85357344542376        1.61951005688457
H           -4.79178664993136       -0.71855519859101        2.31531692855860
C           -7.64058516141266       -1.15956863048612        0.55217187925733
H           -7.73431038136453       -1.82980839596361       -1.47897586335504
H           -7.23554048795925       -0.51679155678460        2.55408190065092
H           -8.71133933241153       -1.06558183919053        0.65401493264762
C           -3.38663417894964       -0.29432457031206       -1.94454349375012
C            3.53096908437145       -0.56146430324125        1.86248344776690
N           -3.91745007110763        0.27435497942036       -2.78642494011183
N            4.03892814343732       -0.01290833267976        2.74058367263515
C           -0.54883761080590       -3.09433902774656        2.06341371657709
H           -1.21064460555840       -3.75589323979919        2.61612122380493
H            0.23999583548847       -3.68180217788428        1.59746682538433
H           -0.08373904621182       -2.40848779180440        2.77071001074728
C            0.68735460593208       -2.92916852770515       -2.43630232478720
H            1.35802705631708       -3.50420978220809       -3.06832673940213
H           -0.09926674888966       -3.58288455640293       -2.06188632342620
H            0.21561121535774       -2.14993336546572       -3.03833793017069
