73
 energy: -125.501806572037 gnorm: 0.000752501257 xtb: 6.5.1 (b24c23e)
Si          -0.55724284251830        1.89147998916879        0.22116875777162
O            1.03392904075093        1.65729578863303        0.27400737285308
C            2.09203688428584        2.61042732178187        0.21911464874727
C            3.24228156313691        1.92556915857098       -0.48349008073317
H            1.75141110640415        3.45203654525613       -0.40183820554554
C            4.42592399544484        1.56585999381655        0.14584417805659
C            3.07715496810184        1.62548261378590       -1.83208602264304
C            5.43957942004206        0.95447863191249       -0.57291850694339
H            4.57043211272057        1.75729943257223        1.19655694252858
C            4.08701675356332        1.00902171874030       -2.54644659504463
H            2.14811898878610        1.88823306413650       -2.31746429406003
C            5.27914652519487        0.68538049099714       -1.92015166158404
H            6.35916786930658        0.68596412081109       -0.07455549249741
H            3.94808369924918        0.79282130005491       -3.59597092309958
H            6.07992432241637        0.22508427532587       -2.47948952494629
C            2.40835124730399        3.13613087012279        1.62224337017851
C            1.33378600366005        3.97991197284774        2.10014776433238
H            3.33189042160123        3.71904122756647        1.58071322952458
H            2.53613985213512        2.29209118763123        2.30533070748919
C            0.42426266980165        4.67065868510531        2.45642566503334
H           -0.36825305324395        5.27165763187024        2.78844194068482
Cl          -1.57700154177905        1.98000895780960        1.92856959831629
Cl          -0.84009799487405        3.57683648860702       -0.86553128919874
O           -1.12127209192916        0.75982360991302       -0.86708957880409
O           -0.13281623965888       -0.44956390411154        1.35418226218608
C           -1.53251450732234       -1.54625973733083       -0.53628096642953
C           -0.07821486923479       -1.70696130021987       -0.52680177419938
C            1.89281506961412       -1.23269850453469        0.67521950263062
C           -3.35998729230569        0.04453026021778       -0.50370348752723
C           -4.26736186112865       -1.00127130272708       -0.34104368728121
C           -2.41797814125169       -2.58488968629696       -0.37599882510660
C           -3.79795929870824       -2.30661061048619       -0.29058573253463
C            0.65014029765913       -2.41702248816178       -1.48453024270368
C            2.01677324062850       -2.55954643210908       -1.30938301002983
C            2.66805583401331       -1.99554533107500       -0.21546968832356
H           -4.49270044009377       -3.11900769356860       -0.15521307341212
H            2.58108218302080       -3.13843512494981       -2.02328452651525
N           -2.01347941775081       -0.26002161823574       -0.65188949277371
N            0.55400070374978       -1.10593222271129        0.51538626072498
C            4.09825849097145       -2.21690648282561        0.00322099951416
C            4.61154690971826       -2.40818426613738        1.28623362835404
C            4.97168078930150       -2.28733578722805       -1.08305345408041
C            5.96026927243092       -2.64046838636061        1.47531357204918
H            3.94960628551248       -2.40152752531045        2.13828044420930
C            6.31876783921559       -2.52049333639296       -0.88875734611557
H            4.59503939576753       -2.12962854659170       -2.08212171872818
C            6.82009833416316       -2.69327114756935        0.39085398938580
H            6.34016168577731       -2.78676618113294        2.47515872135772
H            6.98279464768082       -2.56555093192034       -1.73945109550201
H            7.87388279380951       -2.87335919995116        0.54148900500592
C           -5.70553448412727       -0.72168422746817       -0.20492399936998
C           -6.36459813162616        0.10893237467703       -1.10639689208788
C           -6.42840441173424       -1.31513882122431        0.82672043247219
C           -7.72045012289882        0.34398979720615       -0.97209637207742
H           -5.81735399394937        0.55882728081866       -1.92070418496560
C           -7.78207238598299       -1.07079104074848        0.96141968222047
H           -5.91809525714963       -1.94801693572828        1.53800910827079
C           -8.43133484848450       -0.24172552416272        0.06188608024345
H           -8.22273267855476        0.98857975803959       -1.67744006299254
H           -8.33119931995224       -1.52698113327942        1.77181414041224
H           -9.48900409510014       -0.05214464452723        0.16742009746211
C           -3.74963571263347        1.38266500405985       -0.52654895304019
C            2.43395443196737       -0.52136862926572        1.76429091360794
N           -4.08916724910062        2.48364206507320       -0.57356865231556
N            2.86436902100489        0.07402749164245        2.64581590972726
C           -1.96560825649091       -4.00325147428465       -0.21990750849299
H           -2.21883654945186       -4.57615284845163       -1.11173632334980
H           -0.89543985751306       -4.07167729099427       -0.05035011293797
H           -2.48236379077492       -4.45975154008676        0.62201996862110
C           -0.02149318432969       -3.00465934113079       -2.68517383141384
H            0.58088234541879       -2.81856276515985       -3.57192357023921
H           -0.12515336823168       -4.08384269381362       -2.57677399663157
H           -1.00920472544585       -2.57578345051152       -2.83008713771010
