73
 energy: -125.500794285402 gnorm: 0.000452211229 xtb: 6.5.1 (b24c23e)
Si           0.08121801782855        1.40826346261534       -0.00770155557026
O           -1.46460963225537        1.04611484727017        0.35913186342246
C           -2.38349940724945        1.78872748401732        1.13544099852591
C           -2.82079735209835        3.04746676935363        0.43396261485216
H           -1.89928734008681        2.05757394580732        2.08164447965712
C           -3.07103467378550        3.04656611457763       -0.93081580062071
C           -2.96791260117720        4.22507493337269        1.15454837179420
C           -3.45813598861862        4.21200655996030       -1.56810670378236
H           -2.94918231115175        2.13557486171276       -1.49732137993626
C           -3.36161583847788        5.38714777972115        0.51673644020368
H           -2.75693293856297        4.23222288752786        2.21374123369550
C           -3.60581915708721        5.38340234483360       -0.84625569390061
H           -3.64078300963915        4.20225325118344       -2.63219457398679
H           -3.46678387889539        6.30040089750005        1.08369721737477
H           -3.90379938934046        6.29400886883753       -1.34514566510533
C           -3.58260509770078        0.86753582527046        1.42860296570858
C           -3.16717459019683       -0.23223970774160        2.27009702064477
H           -3.98761057036858        0.49139232658466        0.48547881386701
H           -4.35551958961715        1.44821253656232        1.93785169167164
C           -2.74969256648676       -1.11017056904753        2.96847665516188
H           -2.41530357865410       -1.87671763682590        3.60164005314298
Cl           0.69126603473367        2.30752455980020       -1.72628059385067
Cl           0.35208230336106        3.04881240472950        1.29269381842645
O            1.18511390799910        0.52367051425272        0.96796361449610
O            0.01672363164214       -0.17344839579938       -1.12816061082436
C            1.71860192538621       -1.68605841938528        0.25428002124396
C            0.31329329035353       -2.01060322955770        0.25981778680398
C           -1.80394572318880       -1.52277521477836       -0.71337952861089
C            3.36446224864465        0.07910475421428        0.28761988653764
C            4.37678816043034       -0.80975184348544       -0.02609458991219
C            2.72313626521566       -2.59726806232032       -0.08330588721101
C            4.03547076112044       -2.16281212440024       -0.19830708204434
C           -0.27843026232565       -3.04535695360123        1.00866173911782
C           -1.61916738799923       -3.31818066411859        0.84496592825641
C           -2.40946740771684       -2.59027192186755       -0.06261043409866
H            4.80614481815342       -2.86544415614859       -0.47168408121090
H           -2.07897429738063       -4.10616092067903        1.42070309076909
N            2.08960836842590       -0.37528121358094        0.48916702825090
N           -0.49770053280077       -1.24416364606488       -0.53642183392942
C           -3.82134556088620       -2.91368453677688       -0.28188435223780
C           -4.35167494632509       -2.96120962208114       -1.57056381703118
C           -4.65312515418026       -3.18982457576088        0.80254843426281
C           -5.68508522334406       -3.26746085084365       -1.76566350626092
H           -3.71332350483109       -2.77763155921854       -2.42172058182203
C           -5.98689711718301       -3.48844400195658        0.60135852790358
H           -4.25866494682735       -3.12564218728277        1.80485537602159
C           -6.50719780412143       -3.52871356513903       -0.68196011922096
H           -6.08304041638420       -3.30198027856913       -2.76839384443203
H           -6.62416180865084       -3.68674741305506        1.45015564898040
H           -7.54963512374860       -3.76236261436775       -0.83675728152481
C            5.76070221655141       -0.35525662565164       -0.20946431949456
C            6.36206356630827        0.49567182650931        0.71510671474199
C            6.49636117779864       -0.79229994505528       -1.30923788124041
C            7.66932247517257        0.90678208054173        0.53476847154479
H            5.81024711820777        0.82128373240361        1.58361717636295
C            7.80032130495819       -0.37150191053253       -1.48859162238467
H            6.03175684588477       -1.43830029821471       -2.03982839083741
C            8.39010502901716        0.47839461014914       -0.56746430198031
H            8.12537839404006        1.56573257303314        1.25772870571014
H            8.35698197740569       -0.70545135230493       -2.35151806955205
H            9.40886028419304        0.80608630300030       -0.70905211594320
C            3.59053630417970        1.46623530917608        0.39459280233031
C           -2.51950407967441       -0.65633335351052       -1.57094387239084
N            3.80376822560156        2.59042742548342        0.47662685547904
N           -3.11067063536465        0.02620327894658       -2.27651437622382
C            0.50171929839542       -3.78976828198121        2.04773222792424
H            0.64445835772417       -4.82893391430557        1.75571063940698
H            1.47093360588706       -3.33259454910589        2.22091981266144
H           -0.05453338497415       -3.78926808975631        2.98328908487587
C            2.41721144289008       -4.02151199446444       -0.43274509152556
H            2.99315624101446       -4.30897635090243       -1.31009512899779
H            2.71033582380074       -4.68280258285775        0.38146577363870
H            1.36315740702562       -4.16969693585566       -0.64474389777531
