73
 energy: -125.498481905812 gnorm: 0.000513760151 xtb: 6.5.1 (b24c23e)
Si          -0.33015951475051        1.26047968611389        0.93192999173769
O            0.70727495112089        1.84959449974155       -0.15007452882025
C            1.66911681287250        2.87652812973148       -0.07656882854262
C            2.96760752203470        2.34812842107724       -0.63206364859256
H            1.80417374691143        3.17493586751420        0.96993040934403
C            2.95202974600217        1.43650034550008       -1.67926981907554
C            4.18350036967067        2.74577549196302       -0.09405195937925
C            4.13648788920416        0.92230749756191       -2.17534052548866
H            2.00196800459048        1.12482884906171       -2.08791671364245
C            5.36672767182716        2.22963627798214       -0.59112415227577
H            4.19816994570935        3.44668866294845        0.72659805912405
C            5.34621713113890        1.31438173155825       -1.62951870336382
H            4.11658240185511        0.21506570356068       -2.99197739881437
H            6.30842572722641        2.53593174505276       -0.16068327646606
H            6.26990294086531        0.90374448647573       -2.01036492463246
C            1.16826167531453        4.08447670210632       -0.89001943951900
C           -0.08424587014805        4.56695211005844       -0.34820928548606
H            1.01658232733501        3.77169034950407       -1.92647965494260
H            1.92477091617855        4.87238420193387       -0.85916263510409
C           -1.13000852761997        4.90462636086885        0.12461345445155
H           -2.04738394238448        5.21522970854146        0.52666027169860
Cl           0.38018871157275        2.18109825379964        2.69833249694189
Cl          -2.30901964718908        1.69814615761438        1.38763249773546
O           -0.96459577350254        0.35394931865102       -0.64516258758222
O            0.09288994831201       -0.29009691463205        1.54924733670628
C           -1.53078832542203       -1.81057406340416       -0.03674354545530
C           -0.10735330426187       -2.06820985818717       -0.00199474181972
C            2.04794808656365       -1.18264535889832        0.62578920402869
C           -3.19844907364158       -0.22048468625018       -0.65545874911925
C           -4.21994866696476       -1.11771966656404       -0.37053475483316
C           -2.53234843731985       -2.72502511178494        0.31830920968252
C           -3.85624742208476       -2.36420029614780        0.16821513435936
C            0.52300711860736       -3.05598682844320       -0.75410092044558
C            1.91267275679307       -3.09256518918031       -0.80708427852080
C            2.69673224219104       -2.13718996428794       -0.14052699911264
H           -4.63262671505248       -3.05473340778587        0.45817384892711
H            2.39905182611502       -3.84070527119791       -1.41185518500348
N           -1.90683669040104       -0.56137594945261       -0.45914488181564
N            0.68247572309492       -1.20803147773788        0.73271529058372
C            4.15559403303165       -2.11815676313423       -0.30166432665184
C            5.00587198136413       -1.91986389571153        0.78323728675523
C            4.70767879982247       -2.30137834095872       -1.56838855279739
C            6.37496567266861       -1.88235977614938        0.59796070879370
H            4.59657696355818       -1.81364553699405        1.77570709598071
C            6.07658286332009       -2.25928327769170       -1.74883473251317
H            4.05677639965988       -2.44955231772957       -2.41746908347377
C            6.91405429557510       -2.04469096144259       -0.66699628728079
H            7.02279755871354       -1.72565590502690        1.44681426295114
H            6.49124235102777       -2.39048601788269       -2.73747834889995
H            7.98367795210352       -2.00817020505712       -0.80909688610172
C           -5.62948436695097       -0.77181858550386       -0.58010336573915
C           -6.06112542342092       -0.19177985482906       -1.77104219942201
C           -6.56222282158761       -1.04183307100589        0.42016002531777
C           -7.39624475346228        0.11726046361844       -1.95082989846215
H           -5.35334554176209        0.00029588271125       -2.56277852893823
C           -7.89408777394069       -0.72331797418157        0.23758946065079
H           -6.23268726534016       -1.47103225981922        1.35471100718235
C           -8.31516905855831       -0.14404538043695       -0.94816118448334
H           -7.71949321780401        0.56511382408879       -2.87820716217589
H           -8.60561696622240       -0.92476815077639        1.02440286916618
H           -9.35629780069110        0.10366088904179       -1.08951415212551
C           -3.43727337574563        1.07036541136636       -1.19011344270458
C            2.73378217385046       -0.16752727936592        1.31602420933588
N           -3.63893590266796        2.07423635613101       -1.70358012191757
N            3.30549062697193        0.64475825132818        1.89226830956737
C           -2.19017745038878       -4.04459706480929        0.93657089072530
H           -1.13750275858182       -4.09951089208205        1.19619512815024
H           -2.78045180489090       -4.18202398216202        1.84051610039184
H           -2.43330255131692       -4.86179213620271        0.25922549503932
C           -0.24971684620967       -4.02125316688111       -1.59905383928418
H            0.25090996876447       -4.15135308481336       -2.55599610870074
H           -0.28926112849732       -4.99589948399829       -1.11429117344398
H           -1.26397311475198       -3.67874622860662       -1.77874452236388
