73
 energy: -125.509940643674 gnorm: 0.000642200989 xtb: 6.5.1 (b24c23e)
Si           0.05105258373516        1.43942095610072       -1.43130538047054
O           -0.82236553434876        1.40712043112348       -0.09131396330313
C           -1.24857955090165        2.36665158818731        0.86704053570158
C           -2.27601032656160        1.70924854410493        1.75284800106781
H           -1.70058599906455        3.20658107519813        0.32308134318425
C           -1.92328639330631        0.60241456975666        2.51526260677807
C           -3.56916425925481        2.20819987235950        1.82660854430784
C           -2.85327531773594        0.01312498757529        3.35265423666942
H           -0.92126172888081        0.21110988099976        2.44787581082038
C           -4.49560441888271        1.62069195215440        2.67049916499177
H           -3.85038003831930        3.06286974534659        1.22826810444289
C           -4.13807151433026        0.52467071594225        3.43801345256274
H           -2.57207198867399       -0.84415567264069        3.94662001230931
H           -5.49836111110884        2.01760708422677        2.72626252973695
H           -4.86106875915484        0.06932594865862        4.09974023372379
C           -0.04959501515471        2.86805380881684        1.68716987726220
C            0.73972419061856        3.80804028027338        0.92255770145067
H            0.56234376617839        2.00724825796496        1.97145872510594
H           -0.41798663604828        3.35151019482841        2.59513362956358
C            1.34390889031106        4.58614556732892        0.24330703429893
H            1.90436307312664        5.26280436131818       -0.32924770719118
Cl          -0.57561478463823        2.78611637834941       -2.76618015401343
Cl           2.04494262105500        1.59554794710943       -1.18513571583442
O            1.05928645187466       -0.36529499514770        1.75292140293685
O           -0.17493413130402       -0.07856981017228       -2.04080546036627
C            1.21411177132444       -1.52035241996192       -0.21235362492603
C           -0.24491235696235       -1.62284108031615       -0.23143935320573
C           -2.24967065413520       -1.05926555558621       -1.44892896913433
C            3.12791267706610       -0.71627622269793        0.90497438691448
C            3.96883915573495       -1.18326279374515       -0.10466103202556
C            2.01257132861167       -1.99981265995823       -1.25489100194057
C            3.38423833053818       -1.82394495290868       -1.19260595177369
C           -0.99887849372868       -2.21017836911784        0.75936093478262
C           -2.40004266682668       -2.21162684172815        0.64793435305797
C           -3.02918345691665       -1.62981903324470       -0.44734468953665
H            4.01205666177271       -2.20766868826953       -1.98107854827565
H           -2.99436804463984       -2.67926006616776        1.41510304743164
N            1.77778222858913       -0.86577881593147        0.84240480615346
N           -0.86060525781387       -1.11317076609003       -1.36790473232477
C           -4.49487993983306       -1.61597409612125       -0.55526635756384
C           -5.13388313167502       -1.97042347895356       -1.74041753521934
C           -5.26293171634139       -1.25898308505842        0.54988838172514
C           -6.51425074732176       -1.95649880527684       -1.81795486516054
H           -4.54983954136362       -2.27219924125091       -2.59677498312110
C           -6.64210921271921       -1.23835168518771        0.46437389060147
H           -4.77115371030662       -0.96986064927439        1.46614897814990
C           -7.27154692358576       -1.58693024056565       -0.71900485980185
H           -7.00000244268641       -2.23457892895234       -2.74111722944963
H           -7.22689388899813       -0.94805240098772        1.32470028389557
H           -8.34923363272267       -1.57156792223788       -0.78454482637182
C            5.42236436036150       -1.00177324311275       -0.02125661090829
C            6.11742927996739       -1.28644592636827        1.15154158317629
C            6.12574739812359       -0.55417635037774       -1.13759876733663
C            7.48893652956109       -1.12218753300031        1.20468381162772
H            5.58626031162905       -1.65491861980965        2.01636388648010
C            7.49568957290845       -0.38439860415334       -1.07614481946683
H            5.58773863935622       -0.31124028886361       -2.04184747655028
C            8.18070693658412       -0.66926916319884        0.09375349069958
H            8.01877552154076       -1.34856788520436        2.11755235591226
H            8.03084897735627       -0.02676450168815       -1.94318038469634
H            9.25131873291703       -0.53793071038678        0.13951028687073
C            3.60324822046288        0.01731965009038        2.01564736223336
C           -2.78684731623611       -0.37598124841318       -2.54076684256059
N            3.96948731844321        0.61545505719349        2.92200101909748
N           -3.21224134612194        0.21392795625403       -3.43513281146970
C            1.39148569687202       -2.71732817344238       -2.40872060155317
H            0.59412651810653       -3.37839232744087       -2.07447093366443
H            0.95970427457674       -1.99549387662644       -3.10133621544492
H            2.13988981711161       -3.29748523196934       -2.94179962041953
C           -0.34484677432473       -2.87573713876253        1.92630660400617
H           -1.05957948230988       -3.49378982396658        2.46195677098721
H            0.49155563804357       -3.49529164685797        1.60496480628367
H            0.04436177058627       -2.11786423987801        2.60838203809328
