73
 energy: -125.498763374208 gnorm: 0.000661867499 xtb: 6.5.1 (b24c23e)
Si          -0.05515590323588        1.05273718538209        0.72320259741860
O            0.86323856952771        1.64055322920138       -0.46682299074940
C            1.52359275833295        2.88672860217798       -0.53503566529637
C            0.54266879626068        4.02474367568224       -0.42986745579827
H            2.25123176861104        2.94161202709546        0.28499940243052
C           -0.70835542399467        3.91617922421020       -1.02218323652794
C            0.87291377317163        5.18101751521015        0.26254469898653
C           -1.62537450148480        4.94545569394870       -0.91024243477143
H           -0.97247183408552        3.01228078634951       -1.55123057260519
C           -0.04116868202871        6.21435171247041        0.36406301583962
H            1.84079447474174        5.26086799785185        0.73509563116952
C           -1.29206870046041        6.09726940962473       -0.21864293118687
H           -2.60122178762507        4.84075414343097       -1.36015745611562
H            0.21948514145119        7.10872512685318        0.91080815890362
H           -2.00863955582510        6.90046704023737       -0.12706697811795
C            2.26002354366350        2.93015399764900       -1.88537209955291
C            3.27492174146651        1.90173891886351       -1.96053061466922
H            2.72212541291261        3.91335359571216       -2.00352426019755
H            1.52811393138061        2.78033949558479       -2.68300408620539
C            4.10543244128320        1.04079034908457       -1.99432806693127
H            4.84612226221661        0.29859472787578       -2.02795008626369
Cl          -2.05532550915929        1.35762391849794        1.23301379421232
Cl           0.62859413599123        2.23947538543096        2.34128663146901
O           -0.64662761354797       -0.08414975405345       -0.69823417323258
O            0.55469343302131       -0.35653883723265        1.48802597402586
C           -0.99476283472868       -2.20363031678125        0.19155512403232
C            0.44301592799625       -2.34039607299480        0.19849120854933
C            2.52894903037089       -1.18088498212624        0.55442925424486
C           -2.81394900064213       -0.84421619657877       -0.54800579277297
C           -3.74773642744219       -1.77298235934418       -0.10933003570646
C           -1.90795797272985       -3.13753537497233        0.70705795514850
C           -3.26057424723679       -2.90522189341021        0.56925748823878
C            1.13443154567584       -3.38058403773502       -0.42261948948551
C            2.51810148488573       -3.31509147224678       -0.52586630906029
C            3.23478383422130       -2.19796016324632       -0.06417643890825
H           -3.96586144698414       -3.60965128920674        0.98163422673430
H            3.05129228427828       -4.10992182938597       -1.02234375356003
N           -1.49254295420197       -1.05327248977929       -0.36650947817042
N            1.18276639551363       -1.31408252119556        0.75154813160932
C            4.68375106852004       -2.09580516622427       -0.27625420228751
C            5.53435783832941       -1.68971658168380        0.74937695656858
C            5.22499270847173       -2.41424555346154       -1.52112296105437
C            6.89578418021920       -1.59435167790616        0.52820769302725
H            5.13004291612907       -1.46366103724480        1.72402112111296
C            6.58612855956078       -2.30943862067681       -1.73883314561947
H            4.56949823583809       -2.71055061300899       -2.32748204672049
C            7.42473050541049       -1.89901198111556       -0.71510347342140
H            7.54535841795526       -1.27847705459798        1.33014301281629
H            6.99278798212456       -2.54348736340906       -2.71171074910007
H            8.48727488656353       -1.81647205838092       -0.88713032088490
C           -5.18651311723082       -1.56563381145367       -0.29723896367257
C           -5.70337334579907       -1.16337967488700       -1.52716154759524
C           -6.06072135790108       -1.78489939765034        0.76655092589101
C           -7.06408482152916       -0.97841317104370       -1.68375046472371
H           -5.04043811387216       -1.01385376200564       -2.36565587814576
C           -7.41904336692396       -1.59065537582586        0.60596580890913
H           -5.66696910522116       -2.07410835396160        1.72959020227375
C           -7.92488980439889       -1.18802439945498       -0.61917494684115
H           -7.45326949491032       -0.66840344039163       -2.64166334002768
H           -8.08514233170534       -1.75038306172886        1.44070865280318
H           -8.98659199239598       -1.03713607568860       -0.74305305492966
C           -3.16567728425527        0.34890876665622       -1.22798191995112
C            3.13763529598296        0.01346466342143        0.98515992900293
N           -3.44328481284560        1.26869983137874       -1.85212849783611
N            3.64905360243892        0.97751764674056        1.34081643504888
C           -1.43886678504631       -4.32852735580598        1.48345283144836
H           -1.63076555859224       -5.24821173807862        0.93297990927760
H           -0.37872598437724       -4.26277376525332        1.70757972971927
H           -1.99044171550290       -4.38663597591266        2.41990935972664
C            0.42276881004965       -4.52173683941292       -1.08149092844706
H            0.90662820008662       -4.75543047038459       -2.02727347840396
H            0.47789518113113       -5.41179297194434       -0.45618801813503
H           -0.62069268786227       -4.29060972773746       -1.27067551695725
