73
 energy: -125.494954117890 gnorm: 0.000984263031 xtb: 6.5.1 (b24c23e)
Si          -0.25986206162185        0.83660330886398        0.56342295543472
O           -1.07984146723491        2.19601380329712        0.81948485901396
C           -0.93467041215525        3.54764936203394        0.46403337856261
C           -2.10975949995364        4.00655676485358       -0.36172619533775
H           -0.00964416287336        3.68455444362464       -0.10896562410961
C           -3.30340978843194        3.30056038582903       -0.36993459304392
C           -2.00008186700024        5.17212318876070       -1.11135061039734
C           -4.37271398039255        3.75122626971862       -1.12443624571088
H           -3.38753472787109        2.38906687118807        0.20082292340492
C           -3.07311426723469        5.62646337840057       -1.85523186505745
H           -1.06725304867713        5.71903528560633       -1.11484974868659
C           -4.26240472940295        4.91563611593704       -1.86397423196667
H           -5.29188956284744        3.18530732993612       -1.13204272243533
H           -2.97917140149574        6.53407370767932       -2.43422442247787
H           -5.09810645241147        5.26927311309192       -2.45035407219036
C           -0.83166580945498        4.36205180233695        1.76931743315561
C            0.38968940246351        4.01152347724710        2.46307800087166
H           -1.69719007513420        4.12544619925458        2.39346501978141
H           -0.84055588935881        5.42853910303914        1.53184635484261
C            1.41293680496693        3.66332266355380        2.97668376408531
H            2.31214489661277        3.36442167476248        3.42663326273513
Cl          -1.62311215993140       -0.09741439812811        1.93715929503895
Cl           1.31588300535804        1.75539708903472       -0.64776507094028
O           -0.67953885074213       -0.12328019414444       -0.80683011998769
O            0.90346698555262       -0.26073194142835        1.27902589429548
C            0.08748330690045       -2.29430429210652       -0.33123206636542
C            1.45362331126060       -1.79469904982553       -0.40520295128277
C            3.09632163066512       -0.29283205190096        0.49604101468399
C           -2.25876225801010       -1.78245749154596       -0.42782510601024
C           -2.59490978352867       -3.08707583627382       -0.10480692199655
C           -0.22009239553623       -3.61352835197454       -0.00371018794359
C           -1.55073382288188       -3.99752458431233        0.10881785003995
C            2.39520259071757       -2.26752768894712       -1.31813401932351
C            3.68015628836848       -1.74067323775558       -1.31048072425137
C            4.05984887414573       -0.75833306163667       -0.38484174049782
H           -1.78781079822850       -5.00925356558089        0.39681962454884
H            4.39912072918346       -2.08245019617363       -2.03795228070666
N           -0.95176861557929       -1.43164363956808       -0.58250680236743
N            1.84340377963069       -0.82206164962912        0.48452570814567
C            5.42136103215889       -0.21021984843384       -0.37686831561576
C            6.13616765368496       -0.08421987566660        0.81175992251689
C            6.01594000611251        0.18172181472653       -1.57414750434904
C            7.41903542897543        0.43040693575453        0.80011884258713
H            5.69278590531388       -0.40599212038933        1.74201519613435
C            7.29511667444670        0.70459375440988       -1.57813488489006
H            5.45751759084891        0.10685197645732       -2.49529244287173
C            7.99998250859747        0.82890804917690       -0.39225832130050
H            7.96577058625201        0.52217320081974        1.72629785212243
H            7.74228366952223        1.01920419771669       -2.50919929236044
H            8.99943602249772        1.23695555238216       -0.39736058727587
C           -3.99584254204388       -3.49268807225475        0.05705101389952
C           -4.95709317312374       -3.15641961056314       -0.89287666957483
C           -4.37293965203819       -4.23502099413617        1.17427080635585
C           -6.27048335740858       -3.55296535906884       -0.72311788941910
H           -4.67161624589408       -2.59936877879624       -1.77236294364992
C           -5.68914261852673       -4.62030016182810        1.34311187454250
H           -3.63637182013919       -4.47655816553316        1.92577016852213
C           -6.64042619705376       -4.28217144678462        0.39464355370650
H           -7.00786081290151       -3.28930098049530       -1.46598037615828
H           -5.97447244334424       -5.18321277830041        2.21923984827433
H           -7.66812476776380       -4.58482911795917        0.52762608615860
C           -3.21544896898761       -0.76311540891358       -0.61264809693074
C            3.34888511914195        0.72983802651975        1.43364091156152
N           -3.99774070433591        0.05303343424596       -0.80723877588726
N            3.57970519749703        1.52798405809924        2.22411460307787
C            0.84502286667323       -4.61429088020005        0.32213735413410
H            0.91036715841864       -5.36290710863191       -0.46636954974341
H            1.81694531047613       -4.14750182239608        0.44537318334978
H            0.58644524488823       -5.13027321184499        1.24439072320218
C            2.03430798785414       -3.27305873257652       -2.36712925483626
H            2.35166839213395       -2.90699905879264       -3.34167716529115
H            2.55460733809682       -4.21210144668696       -2.18376887266095
H            0.96575589213017       -3.46050612717722       -2.39737101287757
