73
 energy: -125.499321902681 gnorm: 0.000731855422 xtb: 6.5.1 (b24c23e)
Si           0.38260122272771        1.76682918213605       -0.25342261683174
O           -1.20846855916382        1.60553780354785        0.03522450471189
C           -2.10889396041688        2.33842198143497        0.84366312433799
C           -2.75730093893089        1.33523251214411        1.77193502918950
H           -1.53043338489062        3.05400304816304        1.44489687575859
C           -4.12519444424263        1.11810448321886        1.84872757233088
C           -1.91019704315806        0.57573557581719        2.57522649165168
C           -4.63514665006565        0.17501090385062        2.72688555350137
H           -4.80768337860706        1.68408854745866        1.23478864866344
C           -2.41813892991220       -0.37662741954267        3.43717435943879
H           -0.84520421611497        0.74828120089353        2.52006445491349
C           -3.78665160980133       -0.57658136337969        3.51996759256670
H           -5.70388787666550        0.02910745131112        2.78807625113536
H           -1.74733102350142       -0.95091056437307        4.06027886227596
H           -4.18858537010385       -1.30995064856897        4.20466219640101
C           -3.06957737749704        3.12617955055859       -0.05464984056894
C           -2.30915734151902        4.03910598632743       -0.88467630463836
H           -3.76301798499155        3.69174171049942        0.57269049240166
H           -3.62562532818537        2.44219036995866       -0.70112343614519
C           -1.62845138606250        4.75808998550411       -1.55517756532256
H           -1.04276084115570        5.39285377480246       -2.14958720179381
Cl           1.19577223741486        2.54562843536159       -1.93588884163718
Cl           0.82074774004260        3.34332653905719        1.07478298883054
O            1.30412587310484        0.73718758240461        0.76762592079876
O            0.13643179541151        0.17991665069011       -1.37693273634055
C            1.47389840174726       -1.55276594420128        0.13576638972811
C            0.03507298417410       -1.62649882558554        0.07012000453458
C           -1.90885013159176       -0.81968681822565       -1.04044996880752
C            3.40018323632481       -0.09639060072471        0.18950779041652
C            4.25396788893928       -1.16079074105020       -0.03815752674202
C            2.31756436026413       -2.63844213585618       -0.11043984558597
C            3.68987253732283       -2.44179731386664       -0.17138187945442
C           -0.76810512479304       -2.50373985644735        0.82378924365472
C           -2.12255535675035       -2.55451067782501        0.58278914726832
C           -2.72435149355066       -1.74953871395936       -0.40214103972671
H            4.33774124048726       -3.27944386451444       -0.37351718812007
H           -2.73905163701021       -3.22546411950051        1.15959164642528
N            2.05829676735155       -0.31815063189623        0.34753036596417
N           -0.58614606311093       -0.76589639461373       -0.79729654903127
C           -4.14946483773888       -1.86211715513770       -0.71476935781240
C           -4.60244829026716       -1.79105467424438       -2.03258915872045
C           -5.07844442433327       -2.06793936424383        0.30550202483404
C           -5.95071335318770       -1.89699955041023       -2.31564801619725
H           -3.89534564218474       -1.67476080219099       -2.83969028630262
C           -6.42552693039668       -2.16662181893781        0.01673478457795
H           -4.74307377836145       -2.11286515534951        1.33012314296451
C           -6.86758556565835       -2.07794440544188       -1.29326538196912
H           -6.28589090924041       -1.83906622926394       -3.34003250788115
H           -7.13483819110136       -2.31189763590149        0.81801111435604
H           -7.92098576738428       -2.15331198192164       -1.51663448093847
C            5.70294721682705       -0.96426285392038       -0.16776335784639
C            6.40211021193939       -0.17738141508797        0.74476330982313
C            6.40066415388329       -1.59011348233746       -1.19903566058479
C            7.76913560531944       -0.01554443656242        0.62034865280328
H            5.87677515527448        0.29299506722274        1.56179126224198
C            7.76625564772972       -1.41896695703358       -1.32261408133993
H            5.86370570734948       -2.18694182059846       -1.92179710521782
C            8.45403309818661       -0.63242767775279       -0.41324348133803
H            8.30054936606191        0.59562642616353        1.33371706095035
H            8.29514546560576       -1.89905529053581       -2.13246019008263
H            9.52105031966206       -0.50082758013699       -0.51046807490248
C            3.85321518143272        1.23620828993728        0.25306703525064
C           -2.41930828309205        0.14662363663517       -1.94067713855728
N            4.24488355829065        2.31350479014265        0.30498085570776
N           -2.85163264659433        0.91698503878438       -2.66941453476010
C            1.78320106163608       -4.00367834333111       -0.41692755664586
H            1.91056080979136       -4.66102179336176        0.44199748015538
H            0.73200544261667       -3.97664967160283       -0.68593485590159
H            2.34418557239842       -4.43405374510884       -1.24382795211232
C           -0.18948422143301       -3.31134222784464        1.94361312327799
H           -0.79865374683670       -3.16964581382184        2.83441725519590
H           -0.20302028858947       -4.37346568956283        1.70470389257716
H            0.82987446887643       -3.01047531824506        2.16516921824170
