85
 energy: -139.903094749684 gnorm: 0.000347092791 xtb: 6.5.1 (b24c23e)
Si           0.25761687571162        1.00073825136920        0.26809184250381
O           -0.85641280712401        2.12645241478116       -0.16532579236966
C           -2.16531217047521        2.38422973449653        0.25703837000296
C           -2.52552683989551        3.80289729639815       -0.11283120290545
H           -2.82933025639720        1.68562965031546       -0.26618033770674
C           -1.58273832728935        4.81400905793604        0.01052930385116
C           -3.80728175943594        4.11424303744173       -0.54471475111488
C           -1.91656820117008        6.11915428483270       -0.30380076034018
H           -0.58685945725657        4.56292209128734        0.34213901471220
C           -4.14176672561951        5.42101363732947       -0.85280392926573
H           -4.54139394316545        3.32627572209517       -0.64115894271533
C           -3.19636111934822        6.42574142792681       -0.73430892315910
H           -1.17605947795804        6.90005686285861       -0.21059492549086
H           -5.14120915474807        5.65563622703944       -1.19037876408156
H           -3.45712094856798        7.44511791180775       -0.97933981498080
C           -2.38445237400604        2.21270331397737        1.77637575883703
C           -2.17404736373882        0.85434021331147        2.21940144310954
H           -3.41062960149056        2.51609627449595        2.00225366458130
H           -1.68973796374968        2.86767334874850        2.30737779202946
C           -1.98717803892126       -0.27132560270051        2.58348091428401
H           -1.81764383054972       -1.25061986990814        2.92032489232954
Cl           1.49021883584854        1.43908488569643       -1.32066945627870
Cl           0.79200032682155        1.98196820634407        2.06098027531986
O            1.31517330797370       -0.27216147761376        0.97196386620838
O           -0.76260584061009       -0.25436784320061       -0.40957461820092
C            1.45067377096715       -2.18595868507858       -0.34680531161648
C            0.07742041015530       -2.49239798366953       -0.12529607468699
C           -2.26310119344607       -1.96947967625562       -0.13411996627459
C            3.36049961500485       -0.78722398214400        0.02627648317540
C            4.16852360915467       -1.62050553843152       -0.73191862043183
C            2.27302428783995       -3.06500504245621       -1.08178460245374
C            3.58901027687313       -2.77991191208269       -1.29598767213647
C           -0.27624426704505       -3.83974658988596        0.10934516894413
C           -1.56632516892700       -4.22894956606792        0.29247516813023
C           -2.60923244255892       -3.27978656929675        0.12593308969882
H            1.81945652426961       -3.93492804272969       -1.52854694489774
H            4.20384044970716       -3.44008436683349       -1.88714478701738
H            0.52612305458958       -4.55413708160499        0.20036271015935
H           -1.81403420015612       -5.25435603012919        0.51377294507068
C           -4.00554121335468       -3.73604267233718        0.19300433170944
C           -3.30465290399212       -0.97562619055300       -0.45248837058980
N            2.05841135742354       -1.08697995137070        0.19897254083668
N           -0.96190611148476       -1.57720403440639       -0.17383537632440
C            3.87593263307037        0.43186496953460        0.67032825394969
C            5.59432977808941       -1.34174429946902       -0.94485575962987
C            6.12655649890904       -1.42759728684515       -2.23002289558832
C            6.44129853581324       -1.02139428363236        0.11437705035889
C            8.29961169125225       -0.85141737082022       -1.39547105416661
C            7.78241939382730       -0.77876442630266       -0.11242000492564
C            7.46740863176916       -1.17810253190600       -2.45303791604183
H            5.47560012900306       -1.66372286213764       -3.05924572261408
H            7.86418413931212       -1.23624313760648       -3.45598356867853
H            9.34708518092178       -0.65622213575358       -1.57011597474224
H            8.42839285848753       -0.53290243654314        0.71733737594817
H            6.04846205927412       -0.97658857156083        1.11859543234077
C            3.76100894836117        0.61145671317715        2.04477707828456
C            4.49210867187166        1.41051845545439       -0.10427598767403
C            4.86129133128152        2.73336948629091        1.86286787621205
C            4.97690343117065        2.55714108296364        0.49349286104499
C            4.25578815983032        1.75882708464099        2.63627317834047
H            3.28308492025874       -0.14432093833614        2.64952694047888
H            4.15376687581727        1.89530514988191        3.70191794934118
H            5.23614690739637        3.63398668006333        2.32600473828376
H            5.44015047213269        3.31982177193686       -0.11413780356980
H            4.55506035972830        1.27961658594304       -1.17267311520698
C           -4.35619686785938       -0.73313104572192        0.42561284336700
C           -3.29389320653113       -0.35253939799733       -1.69818844383447
C           -5.37742472763037        0.72226921898701       -1.18615335477623
C           -4.33033930054595        0.48823754692290       -2.06249422840483
C           -5.38173152173501        0.11876897116543        0.06099083880767
H           -4.36429291675786       -1.20566333410980        1.39503902591017
H           -6.19086365286762        0.30601314742868        0.75090832772518
H           -6.18905697144696        1.37379665038386       -1.47537607057582
H           -4.31669972824562        0.96453235107019       -3.03125004503117
H           -2.47828850847557       -0.53219365042098       -2.38193608565869
C           -4.42550253527786       -4.48945629000757        1.28735743444756
C           -4.91290193925833       -3.47479993475016       -0.83150678438126
C           -6.62600434001627       -4.66935170322420        0.35240887118367
C           -6.21202464838656       -3.93797902258037       -0.74886206260606
C           -5.72741547946284       -4.94628155101767        1.36888523871681
H           -3.72948846026601       -4.69894000322038        2.08714903598427
H           -6.04175347131891       -5.52015745137207        2.22826862168704
H           -7.64282070601024       -5.02672376829297        0.41545579190468
H           -6.90467202169075       -3.73012152414058       -1.55089432145756
H           -4.59319960364969       -2.92106004979676       -1.70106719519794
