85
 energy: -139.915905285140 gnorm: 0.000679398002 xtb: 6.5.1 (b24c23e)
Si          -0.17067048591156        0.71903417229499        0.71213147138354
O            0.19026223944177        1.54544588870058       -0.63817086263229
C            0.44962708254486        2.91541927706873       -0.81724291885342
C           -0.66928781348561        3.77407344585393       -0.28607895276373
H            1.38580116602169        3.16921162779967       -0.30252752430280
C           -1.98463131644279        3.35523365076828       -0.42513288785305
C           -0.40125526376068        4.98823521228883        0.32921476211407
C           -3.02052599635708        4.13107894981821        0.06137091354506
H           -2.19318820680543        2.40541563821003       -0.89448371676722
C           -1.43856050289279        5.76939497872604        0.80513183391324
H            0.62291574588872        5.30942769489630        0.45073271502375
C           -2.74924478180391        5.34164144784837        0.67472986649644
H           -4.03818791441180        3.78250841775635       -0.03626033606566
H           -1.22268436235829        6.70988572771640        1.29039568791222
H           -3.55665647670495        5.94834874246756        1.05787613145930
C            0.59701336254194        3.16070243230110       -2.33202873763338
C            1.69261112108481        2.41304725011191       -2.90780636868701
H            0.75343746005760        4.22974350589644       -2.49951682224809
H           -0.33456407816925        2.85816853360859       -2.81728088793356
C            2.59572596607510        1.78822858126647       -3.38470822482048
H            3.38780254556737        1.24722649988236       -3.81103788487878
Cl          -1.92894585467405        0.54863024061587        1.80372400274444
Cl           0.61267819793624        2.18610447126495        2.10635570914789
O           -0.74129910561219       -0.50517251139648       -0.49821055648112
O            0.94472637354738       -0.41993591282012        1.33508828426893
C           -0.27570920451536       -2.68830923864975        0.15862638324939
C            1.11804611560485       -2.41724294272605        0.08013256181754
C            2.95182587685427       -0.87506344580899        0.27786721717200
C           -2.53268194872032       -1.94257671071585       -0.15699922147730
C           -3.02679014492908       -3.20349770217053        0.14439008502753
C           -0.76635752292457       -3.97794619999235        0.44225594174177
C           -2.10602628889855       -4.22808756985375        0.46668021954935
C            2.00704514348765       -3.34156457341750       -0.50663620508468
C            3.29908359429125       -3.00447862646406       -0.77628267416911
C            3.79332987037658       -1.72176196785658       -0.41584395059006
H           -0.05494099891693       -4.75000078668519        0.68708050276201
H           -2.47823837459526       -5.21201322328453        0.70431779994638
H            1.61272134256898       -4.29709415287269       -0.81319312231735
H            3.96113681703320       -3.70253683069374       -1.26315147590240
C            5.16061216707482       -1.33337516576097       -0.78388669460614
C            3.38527155057271        0.43855857179969        0.79012074168082
N           -1.20381534687643       -1.71335203263319       -0.13254877003055
N            1.67449084977315       -1.23609143397097        0.52581128508637
C           -3.42316625629529       -0.83169033206854       -0.53420348832846
C           -4.46139195189111       -3.51597429256867        0.09423676936471
C           -5.05512888500482       -4.20848056611559        1.14771136975212
C           -5.24140956204875       -3.17187293404944       -1.00846791260294
C           -7.16872990234996       -4.17126593685481        0.01490642453631
C           -6.58348525500224       -3.49734662389529       -1.04458917389321
C           -6.39945693679378       -4.52748250899561        1.10984080138138
H           -4.46140207610359       -4.47343344158289        2.01058620632919
H           -6.84907159839627       -5.05475128304409        1.93837361488695
H           -8.21879732983512       -4.42073151074846       -0.01437671732350
H           -7.17591022216314       -3.22633658586478       -1.90593853345177
H           -4.78841750551456       -2.66134147020212       -1.84466603758039
C           -4.48682930586294       -0.48436180637328        0.29481594484384
C           -3.22703245255270       -0.13867723751859       -1.72436609158822
C           -5.14108791213911        1.22956341098471       -1.25023400241346
C           -4.08712596661905        0.88564482575963       -2.07895717259658
C           -5.33567144906006        0.54447620209238       -0.06173080437524
H           -4.62430261335634       -1.00416473026097        1.22924023002505
H           -6.15000363843006        0.81564799663518        0.59289272627534
H           -5.80764532193286        2.03243797773890       -1.52963717372736
H           -3.93071254500450        1.41917981089056       -3.00539945920721
H           -2.40389178414686       -0.40181300966964       -2.37133215136312
C            3.46950391243465        0.66324788133445        2.16027859522759
C            3.71425541839992        1.45425341141120       -0.09846213834369
C            4.20559522118760        2.90695891076253        1.74681966498432
C            4.11563670439214        2.68684034366517        0.38307152971503
C            3.88491725891533        1.89319060868342        2.63323424281804
H            3.20280202093857       -0.12333151275118        2.85028643385706
H            3.94067069802856        2.06503009996298        3.69699440536085
H            4.51451490757700        3.87176851988859        2.12025246840222
H            4.35257116672268        3.47724436621326       -0.31420497401954
H            3.62347350196772        1.28674916471819       -1.16049674395761
C            6.04028882826807       -0.75794597331357        0.13061212883788
C            5.59935830384020       -1.55627647869030       -2.08872817251879
C            7.73787461558280       -0.60902003060103       -1.56112863958136
C            6.87510567540985       -1.19178731689405       -2.47454794434961
C            7.31714864634187       -0.39969646114385       -0.25820030865325
H            5.72797689697338       -0.60633396125237        1.15202880819510
H            7.98876430897956        0.04419346669385        0.46154831739414
H            8.73431560825134       -0.32290541115938       -1.86278387532802
H            7.19744537865897       -1.36057824751430       -3.49179036245498
H            4.92285579905387       -1.99701826548024       -2.80724012448953
