85
 energy: -139.916459395299 gnorm: 0.000609157787 xtb: 6.5.1 (b24c23e)
Si           0.04161486627983        0.71215090920093        0.71941668312730
O            0.55717870391623        1.45822030521703       -0.62649596583285
C            1.07225474310113        2.75691847773612       -0.79138992275800
C            0.14212645473436        3.80551895324189       -0.23690960413259
H            2.04428334120821        2.81912267474121       -0.28455486148066
C           -1.22860924141387        3.66287428353167       -0.39743772948642
C            0.63981888251304        4.92279870971463        0.41765186516197
C           -2.09453752442196        4.61576287012684        0.10640120302948
H           -1.61666708177444        2.78879261375329       -0.89859081738921
C           -0.22634370616866        5.88118103942793        0.91178106206263
H            1.70589313630187        5.02899881205402        0.55513919383947
C           -1.59437177931882        5.72857994631379        0.75973518200187
H           -3.15996089723824        4.48146320434142       -0.00944943957014
H            0.16725904796634        6.74455931700028        1.42782675342816
H           -2.26904937196737        6.47292018383173        1.15682506209090
C            1.24668896156910        2.99877677884983       -2.30332914106835
C            2.23688343109783        2.13148442844793       -2.90114556942654
H            1.53752165947031        4.04175655025729       -2.45665144020111
H            0.28122427161458        2.82567456227777       -2.78553720002184
C            3.05822661163460        1.42631636233768       -3.41201879899750
H            3.77049903985399        0.80446417428709       -3.86740988095380
Cl          -1.75575179525325        0.92354569833962        1.74170343202088
Cl           1.06889573290445        1.98933477755993        2.13671988830228
O           -0.71400215697433       -0.41518033739962       -0.48693290475618
O            0.90039314552035       -0.60149159268785        1.39350287965568
C           -0.83084985838531       -2.59628369112868        0.32129460298318
C            0.58735716564590       -2.68394544228722        0.30501435675129
C            2.73431039335754       -1.60644002512711        0.41163625571196
C           -2.81492596146336       -1.35256470981178       -0.19415733447170
C           -3.62063503490657       -2.42492736928480        0.15979715954995
C           -1.64047508898002       -3.69593842563845        0.66956567073322
C           -2.99967510029950       -3.60881591565428        0.62136145369696
C            1.24001205570502       -3.85357436876355       -0.13969217247914
C            2.57975470693568       -3.86520006154792       -0.38404182916771
C            3.35975146019570       -2.69853850595096       -0.15518844864089
H           -1.15653917513875       -4.59258123838167        1.02134939426017
H           -3.61542458653225       -4.44666750928297        0.90778619398926
H            0.63445517512289       -4.71772358248552       -0.36098446359183
H            3.06357994615999       -4.75312701812576       -0.75825625968450
C            4.77970924495821       -2.67923669457106       -0.52640049540490
C            3.44616787795250       -0.36304032796968        0.76560224373766
N           -1.47365549693456       -1.45256773585732       -0.09605731816939
N            1.40664822627254       -1.63148842605083        0.65944723766637
C           -3.38126617203126       -0.09244314006383       -0.70477622773168
C           -5.08354318651705       -2.38208408679133        0.03265386321745
C           -5.88191753925212       -2.81118497388909        1.09108486273995
C           -5.69774877976273       -1.95880336041671       -1.14471624622578
C           -7.86112027385933       -2.36392488503448       -0.18740784584381
C           -7.07515744574331       -1.95055099761249       -1.25072915737525
C           -7.25976350331782       -2.79568815367596        0.98287438254943
H           -5.41584245505476       -3.13270033272078        2.01118243052217
H           -7.86674637755385       -3.12036850329019        1.81520400564442
H           -8.93745108675355       -2.35284167900020       -0.27188022627687
H           -7.53843853184775       -1.62273852031144       -2.16958105326289
H           -5.09099112440133       -1.65031980032379       -1.98253300529798
C           -4.36925261640926        0.56761747878065        0.02157548509323
C           -2.95465984741208        0.43616418601983       -1.91897355281161
C           -4.49378474367282        2.26175352159684       -1.67228576340233
C           -3.51337814287452        1.60772208695140       -2.39858552436153
C           -4.91652310076594        1.74024955312411       -0.46015791629275
H           -4.68093225432214        0.17284750345793        0.97504685770147
H           -5.67335931763600        2.25148340646562        0.11540746373190
H           -4.92231790003531        3.17921014952965       -2.04841817223421
H           -3.17798440914069        2.01296437516875       -3.34235052834138
H           -2.18748961180129       -0.06820333123710       -2.48660287136948
C            3.61362154140015        0.00598711086618        2.09576795465570
C            3.93623315609105        0.45254249659194       -0.24601689419902
C            4.75258237744744        1.99679131432959        1.39754898031940
C            4.58094908777589        1.63350328950116        0.07256305943255
C            4.27173919290487        1.18052404882996        2.40703838355673
H            3.21990938408100       -0.62189308552667        2.88086755153447
H            4.39015223263913        1.46799269743137        3.44013115275472
H            5.25097166252210        2.92227842603921        1.64471700959510
H            4.93991235646902        2.27209028472404       -0.72119041116193
H            3.78299720603713        0.17574132974442       -1.27728476106361
C            5.76379494224307       -2.18187091627632        0.32586677507730
C            5.16153472472138       -3.18002980252663       -1.77105178193338
C            7.45508743306904       -2.65096928316119       -1.31298258876421
C            6.48674020937798       -3.16130315390362       -2.16166863869587
C            7.08843624794421       -2.16795333863641       -0.06770533547748
H            5.49235500015228       -1.82042132722190        1.30519460217975
H            7.83961751843092       -1.77857393655288        0.60333397021708
H            8.49022091033016       -2.63306135736286       -1.61951551332807
H            6.76522396211903       -3.54313686262890       -3.13313329587052
H            4.40691484958077       -3.56208808557080       -2.44372565531436
