85
 energy: -139.918250856748 gnorm: 0.000178231847 xtb: 6.5.1 (b24c23e)
Si          -0.19220949097346        0.68642373905064        1.12416737152940
O            0.40364516335289        1.62053020079714       -0.05546199384656
C            0.94502712009991        2.91275238031430       -0.05114203925359
C            2.11341216733796        2.97840037160680       -1.00100053106061
H            1.26913170997416        3.17283420076375        0.96471643053103
C            2.17382041432733        2.13317149834439       -2.09978710359549
C            3.11454615365819        3.92190526721000       -0.81256531665779
C            3.22214857970958        2.22775173738334       -2.99772329823509
H            1.39503122759681        1.39789345703019       -2.23269498407427
C            4.15767733686724        4.02212645108882       -1.71548657060435
H            3.07427166863313        4.57569631017206        0.04672328211668
C            4.21354195620390        3.17576839141343       -2.81073892882123
H            3.26456746668875        1.56336820579472       -3.84917313567811
H            4.93227592296649        4.75973443242178       -1.56308690800234
H            5.02999164742017        3.25320459294825       -3.51431283314792
C           -0.13698775094006        3.91357281160475       -0.51259762055551
C           -1.23270729585159        3.96694101530255        0.42947612291808
H            0.31579450619808        4.90293847455436       -0.61666730848938
H           -0.51285084923975        3.58612213567744       -1.48578572812995
C           -2.13078508071498        3.97826582327996        1.21948413235677
H           -2.91330444201826        3.98293799336132        1.91709737457188
Cl           0.77795487135366        1.66565565199502        2.78139940634444
Cl          -2.03815262703579        0.76157167385098        2.07907509008579
O           -0.88921129088776       -0.23862575878080       -0.27587809453926
O            0.64154845256950       -0.71751935732606        1.61199797866829
C           -1.28767255403870       -2.45045312062673        0.32685898129902
C            0.10951231703108       -2.69607562036011        0.39853856096414
C            2.36040629002485       -1.85704879123076        0.56490175649896
C           -3.08407695794650       -0.96885667214954       -0.25349583797311
C           -4.02402452195170       -1.96923560522808       -0.05138400005315
C           -2.23790254029313       -3.46876367447071        0.54955378748262
C           -3.57045070426600       -3.23381877167993        0.38762348842355
C            0.64394984677169       -3.93201608363769       -0.02654034168691
C            1.98300124264907       -4.10026973632273       -0.20776295425026
C            2.87632815246123       -3.02219613130599        0.03464074291526
H           -1.88721714322444       -4.42712697038910        0.89591111408472
H           -4.29122175110984       -4.01473853930575        0.57191288021432
H           -0.04418448254065       -4.72266873565831       -0.27802150193241
H            2.37965159777585       -5.04196031586502       -0.55178472878889
C            4.30692891682411       -3.18341722074930       -0.25755665544239
C            3.20742054807460       -0.68599542615820        0.85897905255196
N           -1.77435993224023       -1.22411273627020       -0.06154547591189
N            1.03044774871891       -1.74497494034236        0.80066838304272
C           -3.46378623428007        0.39143309363632       -0.67108953920008
C           -5.45480899960576       -1.75887820073608       -0.30471325213846
C           -6.39580651403089       -2.18349283152481        0.63141739697536
C           -5.90075814852630       -1.17302302202427       -1.48843821185504
C           -8.17971442934953       -1.41627188152665       -0.77636918831486
C           -7.25218976535863       -1.00419392501651       -1.71938509518407
C           -7.74681729691732       -2.00747829451981        0.39867462327036
H           -6.06087235606975       -2.62785360538210        1.55733923262970
H           -8.46486563329070       -2.33100589589445        1.13783830307232
H           -9.23521737807421       -1.27926744230970       -0.95773106662223
H           -7.58422303332302       -0.55069654518679       -2.64158380017686
H           -5.18388182834519       -0.86303235926698       -2.23362000159079
C           -4.43760989820488        1.08247772594732        0.04575977484352
C           -2.86275928964678        0.99873172340482       -1.76857812353222
C           -4.18891942154941        2.96690952316792       -1.41732477389575
C           -3.22842582379420        2.28004918052076       -2.13817531858779
C           -4.79272471519893        2.36345669042503       -0.32650856705111
H           -4.88623398692271        0.62141341343335        0.91117495373955
H           -5.54073115768629        2.89638862859348        0.24089818105550
H           -4.46281744703983        3.97196770000308       -1.70118545244441
H           -2.75910263702700        2.74450871024018       -2.99332661621270
H           -2.11217937170843        0.46730318585906       -2.33342813060230
C            3.32537310960325       -0.17198682014620        2.14536795761761
C            3.90820953681316       -0.09151121958363       -0.18684689804316
C            4.81103034344853        1.52647540335972        1.33342528681886
C            4.70861007808988        1.00779338787666        0.05340444759164
C            4.12204800615143        0.93412661470666        2.37695207082203
H            2.79163970047725       -0.63219987025158        2.96183921053903
H            4.19081445662646        1.33732480934920        3.37518433871565
H            5.42778658926503        2.39391700554509        1.51500030464715
H            5.24465288073088        1.46615215938896       -0.76339708998006
H            3.81366292275436       -0.48686672914761       -1.18730333538776
C            5.28766221936091       -2.82129865473654        0.66378040674167
C            4.70023378238696       -3.73783702005393       -1.47451466630314
C            7.00712967336648       -3.52980399024335       -0.85426454027910
C            6.03968585218348       -3.90381199662315       -1.77175056463875
C            6.62549672884995       -2.99370240790505        0.36469410164670
H            4.99857381517085       -2.41842412948429        1.62205597681164
H            7.37479785975770       -2.71031115145156        1.08876704268419
H            8.05355437594755       -3.65913282532713       -1.08669361382684
H            6.32997622511944       -4.32476543021237       -2.72329306812875
H            3.94835559983706       -4.01727831501512       -2.19881074207104
