85
 energy: -139.920181034328 gnorm: 0.000755765407 xtb: 6.5.1 (b24c23e)
Si           0.23406586484496        1.02201579357736        0.04114950404168
O           -1.25249521408539        1.08730459546768        0.70986029404129
C           -1.77838451029354        2.06726562450176        1.57352267729571
C           -2.06859687356285        3.35727408777491        0.85130250519926
H           -1.05435071815449        2.25385705454873        2.37517969200187
C           -2.41527925475130        3.34337057034998       -0.49122679922092
C           -2.01294335289698        4.56723157994953        1.52899621587532
C           -2.69484993370227        4.52547308974116       -1.15249905278915
H           -2.44485700510855        2.40358304638907       -1.02030360612283
C           -2.29854106087227        5.74792717851568        0.86854661592813
H           -1.72740173947419        4.58315251014781        2.57071621822623
C           -2.64005301916345        5.72982901725993       -0.47348835696680
H           -2.95105730408539        4.50261876298484       -2.20146487466577
H           -2.24493529830511        6.68670296537169        1.40021174586499
H           -2.85464292636710        6.65412073674301       -0.98979130794306
C           -3.07898564949269        1.51542015771182        2.18848309631000
C           -2.85754708934636        0.20437223470709        2.75672417677358
H           -3.41936885851267        2.20654531438582        2.96354670690912
H           -3.84005135168513        1.45749317744994        1.40741325028818
C           -2.62610685134317       -0.88382972540206        3.19775210972001
H           -2.44424035372784       -1.83335078792173        3.60455992948046
Cl           0.70570234408178        1.64443650542406       -1.86260200606969
Cl           1.02390234613886        2.80764789483501        0.96186433006552
O            1.33810518468369        0.14528018829649        1.01552161719786
O           -0.22163540531638       -0.51570039988125       -0.78831329040808
C            1.37696257590054       -2.20143404899207        0.65450453226280
C           -0.03527303130351       -2.34939940006573        0.63435064098932
C           -2.15949512562738       -1.68896226484992       -0.26186992184689
C            3.32624550540309       -0.82559375612863        0.34423732548328
C            4.13796926727396       -1.93155413778124        0.19769876788825
C            2.22194163574354       -3.33254705037994        0.62970504208154
C            3.55930549846707       -3.21297617934148        0.40415614045783
C           -0.67265472827596       -3.42566819351082        1.28627541234727
C           -2.01473609848020       -3.62362352381470        1.16426730844397
C           -2.78898971674140       -2.76403349576838        0.35224590700046
H            1.76881714849562       -4.30679696673803        0.71586797616407
H            4.19085822610302       -4.08583925444500        0.36324850729971
H           -0.07466410517086       -4.06868034723560        1.91159127213866
H           -2.49867408694590       -4.44796670384723        1.66468700079273
C           -4.21204036993635       -3.06675206246643        0.14870754075510
C           -2.91445192808493       -0.72328716128519       -1.07564851239623
N            2.01112867419673       -0.97438758704014        0.62797436150631
N           -0.83167438909946       -1.51085317710739       -0.11290291062146
C            3.81529686756093        0.55625953520349        0.17107380925653
C            5.55975613478533       -1.82119709707752       -0.15156143082955
C            6.09200289582472       -2.67041704231377       -1.12108902328934
C            6.40488240993266       -0.90872171373897        0.47680979675078
C            8.25757604276466       -1.67958442570496       -0.84131593600600
C            7.74138342496843       -0.84081887252668        0.13227103510244
C            7.42798460703352       -2.59598581009330       -1.46572180477609
H            5.44519901038459       -3.37585618414801       -1.62281565623101
H            7.82351979076385       -3.25440892257905       -2.22527654072586
H            9.30168389586801       -1.62189929947994       -1.11009723872901
H            8.38458291954015       -0.13002432935434        0.62948629441763
H            6.01745429326706       -0.26331004167270        1.24923033061761
C            4.16793435908873        0.98855080162003       -1.10235197783340
C            3.90616473661096        1.42859460944216        1.24914090461517
C            4.69454415507464        3.15348826988440       -0.21662188291079
C            4.35222264105445        2.72186513121547        1.05284978166629
C            4.59991047689614        2.28736619300567       -1.29248800896024
H            4.08033648151974        0.31233784090880       -1.93966381830316
H            4.85211831502912        2.62485543768643       -2.28614944648865
H            5.02450152095780        4.16995708799714       -0.36928817346985
H            4.41079154510096        3.39837374682007        1.89133679408848
H            3.61896531343572        1.09519931793192        2.23505925287002
C           -2.48338746631879       -0.32975287921456       -2.33944129433694
C           -4.10907336788758       -0.20794534754010       -0.57424561789301
C           -4.40712452756158        1.08977775739781       -2.56912563220001
C           -4.84586943646982        0.69533710815388       -1.31502893556628
C           -3.22805086825817        0.57310132093934       -3.07778898848144
H           -1.56754000610809       -0.72523335001499       -2.74867629547503
H           -2.87749823169307        0.87756027149188       -4.05228949699086
H           -4.98167431018437        1.80071724056469       -3.14388430713178
H           -5.76432343657020        1.09642511337894       -0.91180836355436
H           -4.44733366849193       -0.51567382058718        0.40336137865268
C           -4.75738108902931       -3.13260334967558       -1.13271894059463
C           -5.03022927418944       -3.34202410214508        1.24235290768678
C           -6.89955406543420       -3.70636962506194       -0.21529695467258
C           -6.36478771607156       -3.65267066735355        1.06081316934581
C           -6.09003497791875       -3.44958224689873       -1.31009009253900
H           -4.12790401956624       -2.94576365669244       -1.98986905670746
H           -6.49943438171589       -3.49950405160147       -2.30814838127615
H           -7.94190665980310       -3.94960489518783       -0.35648075974134
H           -6.99028589094048       -3.85197174931106        1.91855355768190
H           -4.62232736466994       -3.28097716581326        2.24055326118280
