85
 energy: -139.915531529875 gnorm: 0.000424219138 xtb: 6.5.1 (b24c23e)
Si          -0.09675004271816        1.19049088342030        0.60716357657217
O            1.37828050074577        1.51534192901469       -0.00502771270297
C            1.82346634043573        2.09838113121939       -1.22036854433960
C            1.02665255580636        1.49173610809923       -2.35109568817752
H            2.86794637253638        1.76019053553252       -1.30064917308999
C            1.31367623194620        0.17664111352281       -2.70220849100695
C           -0.04762622583746        2.12849044566964       -2.95571900775527
C            0.52857912271878       -0.50205091200263       -3.61484799885209
H            2.15634449667673       -0.32164618024163       -2.24111745902394
C           -0.82908998796975        1.45030265926192       -3.87603643689986
H           -0.29912383954301        3.14276395847367       -2.69489444186111
C           -0.55322757384241        0.13372622830080       -4.19997316861880
H            0.75796373188580       -1.52873874150499       -3.86414321595565
H           -1.66810546374199        1.95424537110356       -4.33371433690306
H           -1.17698004498497       -0.39685192543878       -4.90531968660989
C            1.82475766199570        3.63027544949268       -1.17120651490363
C            2.77747459776266        4.10555387114912       -0.19162378952981
H            2.09318508113999        4.01008273116617       -2.16092044087140
H            0.83262973800589        3.99058434569416       -0.89597705590116
C            3.57139105816477        4.47087189665726        0.62538216301978
H            4.24964404974777        4.81622301477584        1.34634613681078
Cl          -0.58821249592896        1.53136217885679        2.57823698746320
Cl          -1.15565805483701        2.95437094559970       -0.03984051507503
O           -1.05120188351845        0.30876917035656       -0.52712886098481
O            0.50091769588480       -0.38257858454106        1.27003977764086
C           -0.91699316459621       -2.05771505565086       -0.35248816347661
C            0.50233175448158       -2.08286851814836       -0.31676541282778
C            2.55925940914513       -1.20142914972896        0.55174542277660
C           -2.99704691774089       -0.86916400535348       -0.14760305392169
C           -3.71741153550007       -2.04417891799848       -0.08179556076573
C           -1.65858899460701       -3.25800692001392       -0.40157729133439
C           -3.01149337671161       -3.26523781345568       -0.25167270654959
C            1.24244724106412       -3.04453118871064       -1.03405001395014
C            2.60328478741055       -3.06766571662688       -0.97340877161665
C            3.29620293052458       -2.13580852634722       -0.16466690742430
H           -1.11376062549798       -4.18454714326582       -0.48415129875615
H           -3.56183531811773       -4.19238646629689       -0.25885741029968
H            0.70668587873484       -3.73127104280627       -1.66873892163294
H            3.16764467116478       -3.79930724123507       -1.52985465360420
C            4.75997055251937       -2.21869869072775       -0.07327479585012
C            3.20729619603677       -0.16820228663289        1.37465228538995
N           -1.65375960623447       -0.89114220841961       -0.30369233900474
N            1.21193557107566       -1.21472739180329        0.48282386787642
C           -3.62515532452259        0.46270846452787       -0.05350253668865
C           -5.16641279963116       -2.06437409530120        0.15382367797843
C           -5.68985008205598       -2.96163027279714        1.08442570709412
C           -6.04109745274658       -1.22862076121876       -0.53739498284194
C           -7.90861933601774       -2.16571395790966        0.64574251962167
C           -7.39984972886286       -1.28098097495611       -0.29048827737017
C           -7.04848153226349       -3.00756688114991        1.33105434685523
H           -5.02044923964147       -3.60763505197150        1.63415503254760
H           -7.43773392341530       -3.70053875296816        2.06246980253081
H           -8.97029597870986       -2.20122735111283        0.83874860935820
H           -8.06589591903662       -0.62820862802207       -0.83492642640564
H           -5.65748984752181       -0.54884558808124       -1.28187354059386
C           -4.16050452138389        0.89212226445810        1.15434509104372
C           -3.66985962664246        1.29253440608471       -1.16870352579483
C           -4.78972352344355        2.96719421227314        0.12962495371447
C           -4.25891989724176        2.53865781082228       -1.07495237241642
C           -4.73551519337496        2.14631421222617        1.24269816686867
H           -4.10376629191023        0.25200164530782        2.02211513038712
H           -5.13203578929811        2.48514376878799        2.18758657715480
H           -5.23281133219833        3.94865880297869        0.20384203084153
H           -4.28546585809079        3.18376858762840       -1.93967729739904
H           -3.23201970810157        0.96092705733385       -2.09911135062911
C            2.82007629401956        0.06515871765264        2.69058879879239
C            4.23537275003953        0.59325237644923        0.82205106199501
C            4.45537525199933        1.81117288860533        2.87341315659134
C            4.85170916197480        1.57783608181448        1.56708891504156
C            3.44201921961289        1.05249634191940        3.43173602695710
H            2.03331344615108       -0.52305467274017        3.13589915400327
H            3.12573743222220        1.23144032696283        4.44816119983685
H            4.93519949884115        2.58340929117950        3.45611089108699
H            5.64013156361292        2.16598616230140        1.12230708297062
H            4.54273665651247        0.42053883819700       -0.19873738658908
C            5.40636779347050       -2.22137036616431        1.16198434098773
C            5.52372370508470       -2.34348241821508       -1.23241465470470
C            7.53384908054750       -2.43721093328599        0.07193991680057
C            6.90026474821981       -2.44566224771001       -1.15918220190305
C            6.78158743824514       -2.32935854990909        1.23059948673717
H            4.82424543047340       -2.15184477574879        2.06838624728978
H            7.26951378787051       -2.33260618901739        2.19389849029470
H            8.60898546317245       -2.51744690771056        0.12864673195714
H            7.48050560406025       -2.53069138311981       -2.06628277752170
H            5.03498650427901       -2.33511583881206       -2.19651319396023
