85
 energy: -139.917672833775 gnorm: 0.000538585854 xtb: 6.5.1 (b24c23e)
Si          -0.40021107827536        1.21035192103639        0.28634225729084
O            1.12820780314158        1.43777328809286       -0.23573534617027
C            1.75484944299703        2.57454551509956       -0.77470360086623
C            2.55749093411265        2.21294099981892       -1.99873075215582
H            0.98630146906581        3.30687416650338       -1.04992823182781
C            2.89154803596982        0.89866197655883       -2.28898745668246
C            2.99551412809066        3.22178829657966       -2.84993837825877
C            3.65357287772984        0.59518026898688       -3.40371067149266
H            2.54094831568970        0.11189756057330       -1.64087350104032
C            3.76213992814823        2.91970018973425       -3.95987766744407
H            2.72438722502103        4.24712141580871       -2.64349553350548
C            4.09634185122844        1.60445688697725       -4.23944196765907
H            3.90007155457045       -0.43466439711866       -3.62042200853617
H            4.09666271495717        3.71205994005973       -4.61343318906372
H            4.69313070987415        1.36898202870604       -5.10842137882473
C            2.67990625511652        3.21864519264039        0.28089087035222
C            1.95243116111714        3.50026061216096        1.49873393702913
H            3.08858893606528        4.14405485561727       -0.13170394088472
H            3.50146027353581        2.53424220336747        0.50337453424786
C            1.31637341020783        3.69329575166629        2.49312129580330
H            0.74933090137757        3.86296174106396        3.35849723232477
Cl          -1.13283541881699        1.45837677404666        2.19211755294022
Cl          -1.23191289999120        3.06758665114896       -0.41765907908794
O           -1.35946135343188        0.43663130369467       -0.90855536911778
O            0.07465343228287       -0.42058160316941        0.91630219824577
C           -1.27729671143159       -1.93407754151461       -0.90847845724896
C            0.13573825447114       -2.00751915638438       -0.78625460918054
C            2.12485771108677       -1.39486565034229        0.40767044075658
C           -3.32573457151427       -0.73028218000926       -0.54199078628083
C           -4.06847363983718       -1.89137404495069       -0.61692670769663
C           -2.04375078836578       -3.09947105109634       -1.12414097878355
C           -3.39763189330955       -3.09040480810939       -0.97738467936395
C            0.89980538413806       -2.91802245389191       -1.54515901476774
C            2.23875534662544       -3.05546769816580       -1.33521477846357
C            2.87905613267875       -2.30935513320616       -0.31827514747094
H           -1.52133879670388       -4.02042994984579       -1.32686783739707
H           -3.97294738447411       -3.99194036567023       -1.11434293902856
H            0.40256426009601       -3.47697114838038       -2.32094847640909
H            2.82038263179910       -3.74922772713822       -1.92142232358789
C            4.30081949425550       -2.55319675559913       -0.04007952542074
C            2.73217020338039       -0.55091434706290        1.44900441945679
N           -1.98876282914221       -0.76122782896000       -0.74846045967024
N            0.80550513899096       -1.26282385359218        0.16030358084159
C           -3.92406236012602        0.57645404546179       -0.20935454352065
C           -5.50994734090305       -1.91707851712698       -0.33758653917448
C           -6.02512323546933       -2.92238095134106        0.47989276324469
C           -6.38495559506697       -0.97689718476245       -0.87754103969451
C           -8.23560013801026       -2.02670908217403        0.23522208640691
C           -7.73566257283057       -1.03388546556899       -0.59103379137647
C           -7.37562508984961       -2.97269645732039        0.76760096989943
H           -5.35463854895060       -3.65194853934920        0.91113075271508
H           -7.75815496139932       -3.75078412729291        1.41184215834150
H           -9.29065292578853       -2.06494358247201        0.46133738849430
H           -8.40245350286542       -0.29908871104601       -1.01710803595389
H           -6.00801811330720       -0.20967380601136       -1.53548798889105
C           -4.43555245145659        0.77580649876239        1.06840623497462
C           -3.97337958463973        1.60415461599511       -1.14377386989296
C           -5.03559542274226        3.01953769222441        0.47330730263760
C           -4.53430165542819        2.82010450426573       -0.80104339822606
C           -4.98361624609127        1.99809181201579        1.40666806520014
H           -4.38070670314356       -0.02002736167947        1.79584160204402
H           -5.36150968091856        2.15430200177113        2.40544517911753
H           -5.45769054567302        3.97603081153794        0.74250235273816
H           -4.55964151995219        3.61816115804476       -1.52674814482337
H           -3.56597732201994        1.45218064452063       -2.13197393680361
C            2.15579150548423       -0.43227757113571        2.71076270653588
C            3.92580916087892        0.11657428821279        1.18090793710498
C            3.94532263908204        1.00575436956021        3.40943288090387
C            4.52886111078965        0.88399912163325        2.15932068426100
C            2.75852692402949        0.34777657793733        3.67970337851872
H            1.23696801528348       -0.94940974479017        2.93691598530474
H            2.29542471615386        0.44052809639472        4.65001597755699
H            4.41392223575977        1.61481353834753        4.16754932989854
H            5.45550164223699        1.39554953965498        1.94182978587569
H            4.37077845218107        0.04885025862535        0.19902755757658
C            4.74855241386362       -2.80187952337171        1.25656715066503
C            5.22022844060057       -2.58228305687526       -1.08658641058114
C            6.99512776558400       -3.06177874213752        0.45280268341937
C            6.55787943459848       -2.82768365199056       -0.83997204289168
C            6.08506618826732       -3.05354127378693        1.49768607336887
H            4.04175124719224       -2.80853539950370        2.07276601062548
H            6.41878374231127       -3.24654821443786        2.50640169361507
H            8.04010235345467       -3.25306433261738        0.64524795963061
H            7.26173219178488       -2.83443713461551       -1.65924245531907
H            4.88540578457206       -2.38517898928701       -2.09468497942721
