85
 energy: -139.917160480140 gnorm: 0.000615543356 xtb: 6.5.1 (b24c23e)
Si          -0.07313224421533        0.57498355733829        1.37877408516982
O            0.21345652353669        1.91024241911987        0.51366383786351
C           -0.16046224393223        2.33191599106436       -0.77143393992576
C           -0.59648410673925        3.77704061019311       -0.72090438924679
H           -0.99067942062973        1.71643590977139       -1.13283823824503
C           -0.26333103409912        4.58685731133339        0.35481740762061
C           -1.33204121529323        4.30953696906793       -1.77269593561824
C           -0.66660193890883        5.91092930801046        0.37971772750560
H            0.30061669065540        4.16701897820020        1.17316276601700
C           -1.73097064320769        5.63302050751456       -1.74784797759997
H           -1.59468202359736        3.68058567929612       -2.61150774289785
C           -1.39926639157474        6.43719015767913       -0.66985926884176
H           -0.40717083130323        6.53254064018333        1.22386365794824
H           -2.30530293733898        6.03776905448162       -2.56879698192586
H           -1.71473633269218        7.47008567081678       -0.64869839557388
C            1.04081494532227        2.17205743332728       -1.72827845420452
C            1.23358583161031        0.79485211290455       -2.12251959667282
H            0.87254295257262        2.78253322509895       -2.61947522289871
H            1.93345831898083        2.53471455811449       -1.21114807977803
C            1.37622412284287       -0.34747080812059       -2.45103998986277
H            1.50440452469288       -1.34948166713860       -2.73499905293891
Cl          -1.83916710874355        0.12789400742425        2.39514729892265
Cl           0.80830222452829        1.49924831187652        3.06576241223257
O           -0.70073224602207       -0.29275147022472       -0.12133512951251
O            1.09189858318578       -0.64859325582660        1.56616520605124
C           -0.55653217036860       -2.59882319288990        0.22435156835949
C            0.86224069949281       -2.55349040139626        0.16229638826243
C            2.90710514863789       -1.28683768231084        0.27826726488677
C           -2.66268814997904       -1.50393269103964       -0.09258388526307
C           -3.35991144701198       -2.68067686964413        0.12399304359324
C           -1.25471083262593       -3.80747463995231        0.42970632983268
C           -2.61699576385080       -3.84572801285227        0.42386997584978
C            1.58837510818523       -3.60256233809268       -0.44045019210330
C            2.91296363359533       -3.46923707742476       -0.72983451820535
C            3.59274429275627       -2.26072629895012       -0.41951936737168
H           -0.68152378762014       -4.69298498288734        0.65143113258957
H           -3.14172843607756       -4.76804629121464        0.61650437119743
H            1.04974735995280       -4.48842140026701       -0.73696414365952
H            3.45604138487518       -4.26713468084663       -1.21084253997184
C            4.99580903747324       -2.09528365817180       -0.82169832281670
C            3.52964407285372       -0.00406807326307        0.65287007744796
N           -1.31928238293889       -1.47714711900625        0.00030251919925
N            1.60726682647991       -1.47912312115084        0.61162247616585
C           -3.32833962858903       -0.24645451085699       -0.47704375332386
C           -4.82488008189731       -2.74229089622166        0.05007652211002
C           -5.53574076684495       -3.36448215380113        1.07486235121581
C           -5.52675931338611       -2.21365691996333       -1.03128231314144
C           -7.60481837483428       -2.89947457655827       -0.04490644813673
C           -6.90563013524488       -2.29298693052186       -1.07534086256797
C           -6.91493535929659       -3.43672186266570        1.02916422011599
H           -5.00096905122385       -3.76670260285079        1.92279894499892
H           -7.45418646240241       -3.91137735627240        1.83564139291979
H           -8.68248591885221       -2.95536297579910       -0.07991909038693
H           -7.43752964070451       -1.88051581881835       -1.91995294730578
H           -4.98872965970873       -1.75397985990379       -1.84638611634993
C           -4.29250917730538        0.33521325137275        0.33804442769550
C           -3.00344329187106        0.34800380031821       -1.69326262747256
C           -4.58596011747908        2.09843832112466       -1.26528239951018
C           -3.64097816813397        1.51040130575513       -2.08786886674280
C           -4.90786406608622        1.50935714730896       -0.05362510455849
H           -4.53314476529369       -0.12197041146169        1.28422330052831
H           -5.64300427616570        1.96674046729287        0.59076311169878
H           -5.06961814457623        3.01472019218234       -1.56887103592613
H           -3.39720577939901        1.95667326383574       -3.04081759394505
H           -2.26211420152584       -0.11035973177994       -2.33344873020952
C            3.62528959516235        0.40755403398667        1.97743789971835
C            4.03230186329332        0.81120797653788       -0.35887573530630
C            4.67511835534347        2.44673299779822        1.27414453149115
C            4.59767769061472        2.03230618980981       -0.04597783802158
C            4.19420059665836        1.63070679167334        2.28258477064298
H            3.24961702045452       -0.22073504309495        2.76902990435312
H            4.24298267652757        1.94845779521269        3.31198877639721
H            5.10863269603211        3.40621902902934        1.51395766279923
H            4.97474199746242        2.66426999731256       -0.83721598165431
H            3.95561598844382        0.49150975507142       -1.38747861928631
C            5.96430671908933       -1.64562661864120        0.07360492819949
C            5.38144468505519       -2.42234283290533       -2.12042284393740
C            7.65002056335795       -1.82430584208674       -1.62622305603960
C            6.69691254189892       -2.28208316397981       -2.52027088486216
C            7.27933380306364       -1.51195760504285       -0.32845986835502
H            5.68626019214389       -1.41584321822619        1.09062092894929
H            8.02008704637665       -1.16445174341333        0.37619307756908
H            8.67778723842446       -1.71508695532631       -1.93845719378588
H            6.97925655506763       -2.52936750276963       -3.53319307585771
H            4.63883896289892       -2.76673786282881       -2.82596294630599
