85
 energy: -139.920045963297 gnorm: 0.000624281661 xtb: 6.5.1 (b24c23e)
Si           0.27519700902273        1.16476048956667        0.08617110987926
O           -1.23109858840632        1.07355293829077        0.69624544548771
C           -1.87899678568334        1.75429194694091        1.74627804024880
C           -2.97336788413141        2.63091428272132        1.17759243667284
H           -1.14569737368682        2.40363784626701        2.24573803757036
C           -2.68381676985937        3.39786945810236        0.05407916787157
C           -4.24007718328941        2.72333552223643        1.73856711259978
C           -3.63963016255292        4.22462024872552       -0.50398272747251
H           -1.70095622792288        3.34398898719386       -0.38481674242710
C           -5.19580222965248        3.55785280983248        1.18272237186397
H           -4.49969592064208        2.15250258509768        2.61707377703323
C           -4.90200696855975        4.30763719321199        0.05852302625471
H           -3.39413799563381        4.80918331868831       -1.37776846836482
H           -6.17634909064169        3.61905625420937        1.63339418785449
H           -5.65060024833117        4.95555551106402       -0.37371655085180
C           -2.37025226914412        0.70028439366330        2.75466047938391
C           -1.29695758660863       -0.20782076534485        3.10022880558635
H           -2.72092512655505        1.20125731230933        3.65969800103771
H           -3.18984103837488        0.12476406021526        2.31550117340916
C           -0.40294455746627       -0.96455724112384        3.34409126928012
H            0.38333964110978       -1.61503879125089        3.58552955864052
Cl           0.71473296116928        2.04798836053791       -1.71757193543592
Cl           0.95598130432771        2.83813595485528        1.25769748115238
O            1.45927430933923        0.25753802245727        0.92167707744958
O           -0.09348445108630       -0.29573344718652       -0.91814619789113
C            1.53937910274840       -2.05215474620069        0.35685986455915
C            0.13022073953255       -2.22925158606734        0.34796936858587
C           -2.02201059538823       -1.49985684766657       -0.42190001599608
C            3.44132146884576       -0.60151034540367        0.09781410864815
C            4.27353937468399       -1.67046104319286       -0.16276291075460
C            2.41078262247731       -3.15436315985727        0.22206206923357
C            3.73713459346560       -2.98032892998262       -0.03372360935825
C           -0.48359767490610       -3.35337858842220        0.93556421972281
C           -1.83156686317182       -3.53256731564912        0.85833237664592
C           -2.63320004149966       -2.60879883113383        0.15009636165621
H            1.98397421433747       -4.14412847596644        0.24713845258160
H            4.39031323408130       -3.82873667815568       -0.16041705241961
H            0.13355074082573       -4.04682314651992        1.48315102612539
H           -2.30004444611988       -4.38908568377809        1.31678227083721
C           -4.06958599782216       -2.88070545145130        0.00398590590164
C           -2.79335405573296       -0.47222775769724       -1.13969087810332
N            2.14154416836460       -0.80956906790393        0.41620144222756
N           -0.68688180556683       -1.34589802100587       -0.31880080934427
C            3.88855614687293        0.80182749904706        0.01047575634790
C            5.67674385211146       -1.49020080803250       -0.55578420230042
C            6.19006500517231       -2.23512231974031       -1.61673817508426
C            6.52109488866589       -0.60827432642302        0.11567674813319
C            8.33542124422226       -1.20020318750554       -1.34086535140971
C            7.83859719506328       -0.46667377197301       -0.27617432407713
C            7.50680521991593       -2.08650324408125       -2.00855513359336
H            5.54230012517458       -2.91550355061821       -2.15090617378783
H            7.88748437849229       -2.66243941414144       -2.83934912888586
H            9.36417315583091       -1.08395519222579       -1.64727138878118
H            8.48198614088726        0.21921832454159        0.25459908365980
H            6.14793097563331       -0.04494725448003        0.95661487647434
C            4.24107090032837        1.31619660945462       -1.23278498332707
C            3.93902340389999        1.61602402472166        1.13599232797931
C            4.67963368201717        3.44637576253695       -0.22357445535609
C            4.33879423989169        2.93372634398456        1.01594493413275
C            4.62991868217070        2.63718804220842       -1.34607843320193
H            4.18772631930696        0.68421867935777       -2.10678177931003
H            4.88416814949406        3.03676397242771       -2.31594158042213
H            4.97531309232226        4.48051035003033       -0.31628839242799
H            4.36311078438120        3.56405764227444        1.89128733087280
H            3.65662362655727        1.21987304254828        2.09966428193311
C           -2.39063796809560       -0.00093550368959       -2.38622957369189
C           -3.96144497378777        0.03354672212811       -0.57200139163508
C           -4.28850615683457        1.46613120429384       -2.46431263914757
C           -4.70409850433252        0.99114423637512       -1.23183643649726
C           -3.13269267057146        0.96683514471159       -3.03787206235803
H           -1.49702617120667       -0.38871362600133       -2.84896801570859
H           -2.80037810557575        1.33259399863114       -3.99757106996906
H           -4.86458647125453        2.22442978112145       -2.97280538522755
H           -5.60314705405922        1.37735312124225       -0.77639551839327
H           -4.28500286662340       -0.31925645808498        0.39500039167247
C           -4.68885319521115       -2.83858417961490       -1.24444555079008
C           -4.82662282184256       -3.23529678275919        1.11912933515146
C           -6.78195243643480       -3.46497969457552       -0.25059485862236
C           -6.17369042136783       -3.51896909424387        0.99219540044689
C           -6.03379265694932       -3.12812516453659       -1.36729159701527
H           -4.10752592310634       -2.58948071734794       -2.11944953337253
H           -6.50087866125752       -3.09414255761630       -2.34032626674538
H           -7.83379268735047       -3.68754251194464       -0.34937851065920
H           -6.75087642840686       -3.78237447821321        1.86647580490057
H           -4.35744658002061       -3.26331623904490        2.09253451254324
