85
 energy: -139.917165356225 gnorm: 0.000266269404 xtb: 6.5.1 (b24c23e)
Si          -0.19212458060024        0.40294970815784        1.45800047587777
O           -0.21308217931311        1.83852520846659        0.71316373163761
C           -0.70101942397613        2.28170274939409       -0.52568906889919
C           -1.44748605354033        3.58169777220607       -0.34285347916335
H           -1.38117103095513        1.53143732679495       -0.94124890131944
C           -1.29272200069261        4.34094626176342        0.80742531104777
C           -2.29442691001106        4.03257723887120       -1.34800910521486
C           -1.98226735595044        5.53261057011284        0.95201166429509
H           -0.63965537631579        3.98362919615111        1.58834827653594
C           -2.98030895882982        5.22410893920055       -1.20318334198919
H           -2.41580848173722        3.44425615495842       -2.24663925425444
C           -2.82609612354876        5.97703051208105       -0.05080446948727
H           -1.85906548161977        6.11508320932525        1.85302257951400
H           -3.63873354592457        5.56534986382718       -1.98912374281375
H           -3.36480260811910        6.90626718605549        0.06389231838823
C            0.48544209710259        2.48053127489136       -1.49394040286762
C            0.96675986624051        1.22031493053162       -2.01276892096405
H            0.16844924833477        3.11630666754862       -2.32490390778133
H            1.28643760805332        2.98368858215942       -0.94543986471282
C            1.34275487656335        0.16875866966482       -2.44387516452996
H            1.67796208043249       -0.75006209450730       -2.82379121788643
Cl          -1.77433355179152       -0.50339276706098        2.46955600610333
Cl           0.53619568586563        1.34749386146573        3.20755026800056
O           -0.68657078294396       -0.43961512931699       -0.10224312926346
O            1.20555071346420       -0.56482006559555        1.51268527606550
C           -0.02928216704290       -2.67904189233417       -0.01200647571869
C            1.34242611926544       -2.31606340885122       -0.09060535840134
C            3.08508358068604       -0.67489268494501        0.16907701076621
C           -2.33680966588424       -2.05345391893504       -0.15278339987841
C           -2.74679880155574       -3.37357176225077       -0.06519961366492
C           -0.43457047308008       -4.02822999732758        0.06324042589447
C           -1.75373050620428       -4.36977072022138        0.07703186080354
C            2.25111665013009       -3.11016581809579       -0.82234266382451
C            3.51084141368639       -2.67177872499876       -1.09880850194843
C            3.93858421757151       -1.39651409865518       -0.64096166975025
H            0.32852573156473       -4.78203019908389        0.16946998075065
H           -2.05360828503598       -5.40172162023059        0.16781702381520
H            1.89736994219200       -4.04652738440188       -1.22342010536142
H            4.19114181615411       -3.27618181264901       -1.67746178675962
C            5.27038716175462       -0.90317248969125       -1.01503492164493
C            3.44112101733586        0.65307218524803        0.70139030870079
N           -1.02865905342507       -1.73754787536600       -0.09079106042739
N            1.85989608740091       -1.16677026565765        0.47620904996967
C           -3.28760908240855       -0.94490184871031       -0.34937282043083
C           -4.16380502416645       -3.75365582108973       -0.12151509471296
C           -4.67671933630522       -4.63171013304823        0.83147747632149
C           -5.00858234455230       -3.27799281084562       -1.12240282509489
C           -6.84072462903368       -4.52163906817743       -0.19641066249752
C           -6.33581870290150       -3.66066334289683       -1.15687385511539
C           -6.00623691496273       -5.00710491630944        0.79655494804558
H           -4.03230546030832       -4.99668397526087        1.61783856940886
H           -6.39371174320114       -5.67888358486646        1.54827829437983
H           -7.87948156804888       -4.81487734264924       -0.22314897263675
H           -6.97943936613388       -3.28639369907549       -1.93922915679208
H           -4.61891064592944       -2.61949460634477       -1.88381490090006
C           -4.31118132736096       -0.71672043503462        0.56385750896908
C           -3.17616663814549       -0.13584223772790       -1.47628021547172
C           -5.08292116483129        1.13080995592239       -0.76007791283366
C           -4.07914923497243        0.89182505234248       -1.68221029221811
C           -5.19635567903453        0.32482205129654        0.36084571241697
H           -4.38843802715274       -1.33978693835524        1.44019224820980
H           -5.97800765619843        0.50847259647472        1.08209225638621
H           -5.77541307285761        1.94432259573326       -0.91605091401592
H           -3.99759020126448        1.50758045525231       -2.56562778591396
H           -2.39229913272075       -0.32500881587262       -2.19697580870211
C            3.49492489901199        0.90357552737649        2.06792427893269
C            3.72690022530897        1.67727377645625       -0.19819116330260
C            4.07271723482428        3.19008841433181        1.63133847383275
C            4.03594469808615        2.94034249639722        0.26884123493860
C            3.80856052670987        2.16960729636225        2.52742720358817
H            3.28418650604257        0.11434159630338        2.77184842857873
H            3.82662145603109        2.35723189235258        3.58922291598573
H            4.30490072197688        4.18092492273557        1.99231997409209
H            4.24429930174682        3.73355426793021       -0.43471888507062
H            3.68308464455730        1.48076795384705       -1.25924159139857
C            6.14574542858428       -0.37357795732587       -0.06892349941941
C            5.68999108059477       -0.99504126095578       -2.34103640049570
C            7.80274901337608       -0.01658523647401       -1.76902847927131
C            6.94369006582638       -0.54990893034493       -2.71506739009558
C            7.40038315437546        0.06533007164192       -0.44598463323925
H            5.84643219524360       -0.32212330982793        0.96649598072597
H            8.06964727225031        0.47084882761996        0.29812428515944
H            8.78270346312393        0.33008956966236       -2.06096194166324
H            7.25134423713052       -0.61866153217531       -3.74826682356866
H            5.01848931201869       -1.39782285536135       -3.08578780475740
