85
 energy: -139.913873209155 gnorm: 0.000632183793 xtb: 6.5.1 (b24c23e)
Si          -0.16720833474338        0.90109737298674        0.77795878046956
O            1.37015671729141        1.34830366608395        0.49065330981878
C            2.01509859727770        2.57919126651362        0.23473233006456
C            1.54794822810522        3.11969338664748       -1.09890819981360
H            3.07508813229134        2.29244589063590        0.14126683805985
C            1.53828730925468        2.23434589170514       -2.17230099820854
C            1.11426681398197        4.42107286403166       -1.30134716619094
C            1.08967166488831        2.63207178318541       -3.41668661780936
H            1.87906750966641        1.21927229080788       -2.01871195991343
C            0.67070662861849        4.82160675192692       -2.55068935855961
H            1.10254782436625        5.12946697446136       -0.48947653314232
C            0.65221929786413        3.93165037465202       -3.60919873403649
H            1.08177817324356        1.92817882627124       -4.23705295285190
H            0.32817864755777        5.83609685154733       -2.69279243977666
H            0.29768755577789        4.24712347181684       -4.57973025774179
C            1.90104254066338        3.56428459072815        1.40608973425556
C            2.20054810064297        2.91441124663537        2.66318232457387
H            2.60242072434100        4.38603804982411        1.23919262169599
H            0.88257814519852        3.95281738657102        1.46090529827820
C            2.41317101748120        2.36083605054922        3.70174447651442
H            2.57838429849796        1.89573096448136        4.62616191712812
Cl          -0.85621581782054        0.45619818525560        2.65175693892854
Cl          -1.10553030857267        2.84116467105093        0.67054136228310
O           -1.13640512243830        0.52359021609584       -0.59483093341216
O            0.41589693308752       -0.83112715219203        0.76737584982047
C           -1.03219714748680       -1.71825201797215       -1.35416998548731
C            0.38730251753469       -1.73720265097744       -1.37379151124841
C            2.46036525665412       -1.32877478829811       -0.24499980927737
C           -3.07534100549484       -0.74451330328825       -0.55021198575233
C           -3.80083357220562       -1.85593023662165       -0.93009671544322
C           -1.78440252603982       -2.80154052682034       -1.85348660259502
C           -3.12706280284885       -2.88498547551205       -1.64006159112650
C            1.10364209983968       -2.29468840303053       -2.45113870513870
C            2.46464640761750       -2.34593419785752       -2.43256523482570
C            3.17581367464386       -1.87332985875959       -1.30473263282240
H           -1.25441064622297       -3.60395328148994       -2.34100871873054
H           -3.69121799292155       -3.73195394761719       -1.99635232138689
H            0.54754066672449       -2.63931900753873       -3.30776783551905
H            3.01345947151030       -2.76386737391239       -3.26157804295159
C            4.63666675546733       -2.03233794096816       -1.27487199093780
C            3.14862848552612       -0.80716452425772        0.94556575060695
N           -1.74899335482621       -0.67603932845030       -0.80394292907119
N            1.11375659139275       -1.27903375438629       -0.29518553484747
C           -3.69031318087911        0.39889851795290        0.14956260632309
C           -5.23156195836310       -1.99269147533598       -0.62684477468727
C           -5.70342149008981       -3.19093574646155       -0.09302584106223
C           -6.13865777085048       -0.96485506592785       -0.87534996569882
C           -7.93530003237440       -2.31641601973632       -0.03351950073553
C           -7.47854593174504       -1.12844852623727       -0.57971240370628
C           -7.04326062321276       -3.34821844394874        0.20627986843792
H           -5.00751530977159       -3.99218797695256        0.11054818790156
H           -7.39255743780175       -4.27808856800342        0.63064861983534
H           -8.98195504464503       -2.43886666916859        0.20152107355969
H           -8.17050969595971       -0.32362186244285       -0.77863323331042
H           -5.79520301162728       -0.04190424042398       -1.31570503837700
C           -4.16321045836428        0.22877077085513        1.44578640346609
C           -3.80344862492877        1.63642948971765       -0.47356317966620
C           -4.86023885725703        2.52272122920058        1.48675374300705
C           -4.39454847280581        2.69210851505345        0.19458025910651
C           -4.74005506479681        1.29315490617347        2.11179064783822
H           -4.05603366755041       -0.72883740594842        1.93220717355294
H           -5.08835920294123        1.16189945482961        3.12476818122381
H           -5.30750147425525        3.35369312232996        2.01110276054049
H           -4.47242852767644        3.65288522492205       -0.29051351080423
H           -3.42278947381567        1.77044851142177       -1.47543520302029
C            2.77901807056348       -1.20467780670864        2.22623507733917
C            4.22691114073559        0.06114884403553        0.78462812790406
C            4.55891256365397        0.10918516555318        3.15704449919940
C            4.92215013438185        0.51973867981303        1.88550008910576
C            3.48670922457001       -0.74968912048016        3.32305964188194
H            1.94513783241354       -1.87478641753684        2.36388222926716
H            3.19501552644729       -1.07101236561175        4.31185921513433
H            5.11164283327212        0.46282921867247        4.01461676960497
H            5.75071484754200        1.19911761970375        1.75120736926591
H            4.51418411967558        0.37834588403507       -0.20733241737689
C            5.27671202715538       -2.62586940916117       -0.18791213564390
C            5.40044109098347       -1.63871632793523       -2.37205833422669
C            7.39923892745087       -2.39645665367618       -1.28518897315680
C            6.77156121391919       -1.81406364777652       -2.37330421574045
C            6.64634623014530       -2.80452073682544       -0.19590386878432
H            4.69378060312926       -2.95910659658611        0.65741400386775
H            7.12926303306071       -3.26870310694203        0.65111845280090
H            8.46990880752967       -2.53534413976406       -1.28739451420561
H            7.35203106925672       -1.49494583008179       -3.22651832173198
H            4.91608586044848       -1.17108624910809       -3.21757580209028
