85
 energy: -139.914616602965 gnorm: 0.000316306160 xtb: 6.5.1 (b24c23e)
Si          -0.21916481127559        0.95062708257646        1.28541282988698
O            0.18772576414267        2.24073974540151        0.39545810849324
C           -0.09641637167585        2.64058429518244       -0.93376546252332
C            1.11599535843135        2.30533532301342       -1.77364345455811
H           -0.95866160085698        2.07458486493050       -1.29817294833279
C            2.18534315734497        3.17998870617574       -1.92625586571697
C            1.21844204086976        1.02718216065901       -2.31419000778349
C            3.32716311306497        2.78263935713951       -2.60183776741509
H            2.14031439082203        4.17297512325780       -1.50753088798624
C            2.36335273966679        0.62494871715909       -2.97744636637568
H            0.39588461460366        0.33954812456691       -2.19019423481035
C            3.42310206426729        1.50452034047848       -3.12386029704803
H            4.15048913595963        3.47322941893866       -2.71110803577020
H            2.43150589054582       -0.37698539178595       -3.37714272098840
H            4.31878935262432        1.19285804073336       -3.64094441948825
C           -0.45809328132634        4.13118010352393       -0.90016581892031
C           -1.71174039907284        4.31494160789535       -0.19912765845633
H           -0.53645354061680        4.51129451736430       -1.92231454626068
H            0.31838858047139        4.67859647509669       -0.36147320255347
C           -2.73634480417669        4.42106491446514        0.40836350324284
H           -3.62910734019417        4.53297486793666        0.94600837786145
Cl           0.72470012465196        1.79779592237874        2.96945247262927
Cl          -2.03929197696195        0.68136490432681        2.24635818609108
O           -0.90195415904970        0.10562713320105       -0.23582191895589
O            0.84521057928175       -0.36885016096342        1.48879021526020
C           -0.92336275497041       -2.19385227950281        0.11202079476051
C            0.49599628006650       -2.24116764202323        0.05481688382043
C            2.65904281486624       -1.23955918190392        0.36195463370544
C           -2.95364569301535       -0.96524515316834       -0.20821149970150
C           -3.72123113824560       -2.10174959769258       -0.00971305523645
C           -1.69405847216430       -3.35894161275175        0.30568319369180
C           -3.05604509740169       -3.31210108314638        0.28982154204576
C            1.13907464106583       -3.34485105398479       -0.54725430421076
C            2.48211205217564       -3.35413044022067       -0.76716879516192
C            3.27706397047798       -2.25543382365361       -0.34565143811096
H           -1.17797273391938       -4.27873096386945        0.52731364156215
H           -3.63914794140544       -4.20059696446215        0.47340827994395
H            0.52155353926015       -4.15401263504846       -0.90229559783993
H            2.94923872860545       -4.17470163515349       -1.28737900428601
C            4.71068828789217       -2.21911530663978       -0.64390603264616
C            3.44895671080093       -0.20883752374043        1.06085697840845
N           -1.61187337058645       -1.02526989215005       -0.10732601287366
N            1.31910612309469       -1.24310926589871        0.54628901230808
C           -3.55554879939105        0.32353722123652       -0.58900283660889
C           -5.18570949459789       -2.08470540632584       -0.12160104380525
C           -5.95871921834496       -2.65723039127183        0.88641412592050
C           -5.82483617925801       -1.53953825447383       -1.23327429428127
C           -7.96470148684072       -2.11331809004212       -0.31040522523508
C           -7.20345041714613       -1.55514706656915       -1.32412512443302
C           -7.33770045494540       -2.66518164677658        0.79424773666758
H           -5.47205199368327       -3.07280528760531        1.75667237074661
H           -7.92572178720320       -3.10221973125693        1.58780493681845
H           -9.04194488087837       -2.12075611785899       -0.38259813883478
H           -7.68627955132031       -1.13180661426016       -2.19249708352272
H           -5.23788523806713       -1.11709085957028       -2.03474381942086
C           -4.53899318288018        0.90958159554895        0.20027096026924
C           -3.17925522728578        0.93143806101340       -1.78290950539389
C           -4.76064260560687        2.68975312862763       -1.39534554949211
C           -3.78148725370212        2.11042848093334       -2.18248138738781
C           -5.13506850450901        2.08797212653431       -0.20504842143705
H           -4.81335225258888        0.44694508742246        1.13453087498994
H           -5.89822516954218        2.53798985134571        0.41216854873883
H           -5.22845055426455        3.61040882639099       -1.71018837178808
H           -3.48504983049128        2.57547852691933       -3.11109854439807
H           -2.43321037749354        0.46496043420086       -2.41147859890030
C            4.39551257301578       -0.62368305795323        1.99440441838099
C            3.27657774137544        1.14765819249971        0.81913244205552
C            4.97275519246944        1.66122687917586        2.43474460700969
C            4.03804978878148        2.07616948330536        1.50293861176422
C            5.14942088279389        0.30954869359573        2.67886249738203
H            4.52428863218141       -1.67799377951363        2.19140888511304
H            5.87296041007732       -0.02032668115961        3.40939489690566
H            5.55913996303736        2.38894712531000        2.97520122391538
H            3.88885422685622        3.12743858144324        1.31197146627031
H            2.55148323636403        1.47563446818123        0.09468723431093
C            5.48833521378943       -3.36915434304384       -0.51157283240155
C            5.31783295420936       -1.04636738004653       -1.09401220669948
C            7.43368821611861       -2.17058024584256       -1.24091414303962
C            6.66682197437729       -1.02584109486407       -1.38814279450727
C            6.83871414897882       -3.34205852311847       -0.80345522719554
H            5.03546947178034       -4.28156091036946       -0.15120202253661
H            7.43052012217433       -4.23811054339833       -0.68625023700863
H            8.48903328120064       -2.15036343588032       -1.46773001149977
H            7.12321659003852       -0.11107428100513       -1.73634778310867
H            4.72269027227367       -0.15594716012133       -1.22828893402395
