85
 energy: -139.903170359899 gnorm: 0.000442727875 xtb: 6.5.1 (b24c23e)
Si           0.32036379869857        1.02651849440454        0.23558416123184
O           -0.77261137551976        2.15604578198702       -0.23931661974170
C           -2.07417096334948        2.45985751942548        0.17423045642700
C           -2.38177431753608        3.89293388124275       -0.18792382864875
H           -2.75852932665498        1.78895094871904       -0.35882147535781
C           -1.41179344884030        4.87269971721355       -0.02765424199630
C           -3.64338200237840        4.24925169936757       -0.64335828337759
C           -1.69955016237654        6.19211004327229       -0.32747324953082
H           -0.43177214942021        4.58666836084380        0.32244315670214
C           -3.93177922128215        5.57034365339163       -0.93681528658904
H           -4.39849158625932        3.48563512114245       -0.76879980325349
C           -2.95994134025993        6.54405805861554       -0.78010964765302
H           -0.93848988955716        6.94867385772041       -0.20490409105199
H           -4.91614403620218        5.84050819014069       -1.29151300685981
H           -3.18513952892132        7.57483540955679       -1.01231625865727
C           -2.31290228479364        2.29306140741057        1.69140155172492
C           -2.12592902273175        0.93536986011736        2.14613345008386
H           -3.33712444572784        2.61193110605872        1.90444974114998
H           -1.61519926316710        2.94028338911381        2.22817735700731
C           -1.96013397972968       -0.18799113561405        2.52780303253103
H           -1.80882571280685       -1.16384971827926        2.88300503404934
Cl           1.58059423381328        1.37940929279249       -1.34653765718698
Cl           0.86728312921584        2.07725967136453        1.99099677937947
O            1.31922071782609       -0.23672764233313        1.01766834785382
O           -0.69632788196591       -0.24145157940166       -0.45045493722948
C            1.38952938424451       -2.25808809951425       -0.14349424594105
C           -0.00194290224740       -2.47971569916986        0.06131122857732
C           -2.30764031924817       -1.83905908856231       -0.08719618819071
C            3.35197382433111       -0.91297332318850        0.14454429229012
C            4.13636806185483       -1.84828156571852       -0.51244484164227
C            2.18652937347008       -3.23785455692014       -0.77110807492068
C            3.51801061092055       -3.03161289374908       -0.97823910013501
C           -0.43426582136444       -3.77885145880011        0.40771401812258
C           -1.74975609611564       -4.08142226726963        0.57423399177339
C           -2.73272539665318       -3.10099230819487        0.27730087119532
H            1.70299852503693       -4.12673339499899       -1.14287353714097
H            4.11588373034047       -3.77115921674242       -1.48700100165029
H            0.32478935414406       -4.52072815186518        0.59726107793211
H           -2.06141532016286       -5.06645453226831        0.88164280685989
C           -4.15269589983688       -3.47886466929174        0.32749058822060
C           -3.27915877395457       -0.82404091258494       -0.53226971878232
N            2.03414860350544       -1.13890603659316        0.31407387555424
N           -0.98652008150545       -1.52193937645503       -0.11268590743330
C            3.91353121026413        0.33688600172708        0.68226575754789
C            5.57961725736191       -1.65867750051549       -0.70624664859287
C            6.14334565818975       -1.89174120808305       -1.95919085720525
C            6.41183809889412       -1.28536312285279        0.34734719538101
C            8.31989973246981       -1.35559247529371       -1.10702478356167
C            7.77033817941134       -1.13588840011894        0.14543337157475
C            7.50198286864012       -1.73496981499101       -2.15808466104126
H            5.50507342818503       -2.17091664495879       -2.78494759067108
H            7.92422450296114       -1.90771713505770       -3.13715145233251
H            9.38140380471060       -1.23404368257364       -1.26264487327348
H            8.40436366150585       -0.84851284742555        0.97101961911609
H            5.99288474360594       -1.12694546435359        1.32921290887907
C            3.79026332553940        0.65017548221448        2.03165479594096
C            4.58658289377900        1.20787738768974       -0.16983384317447
C            4.99558593415214        2.69070542128122        1.67086277406514
C            5.11938287207624        2.38127526786557        0.32601817181495
C            4.33339518947182        1.82336348668063        2.52149263430654
H            3.26889280138377       -0.02162297233953        2.69647276988758
H            4.22484281319614        2.06404335373776        3.56781615498586
H            5.40899793506479        3.61167044926363        2.05431689811918
H            5.62682068986348        3.06039393686390       -0.34232108485226
H            4.65716939113018        0.97412147350912       -1.22003317283908
C           -4.35794737170186       -0.46573471040109        0.27070789940771
C           -3.17313970431378       -0.29251284226379       -1.81541652210883
C           -5.21771655528107        0.92078582206947       -1.48950176042781
C           -4.14186831710082        0.57342630748297       -2.28995251289750
C           -5.31749660654943        0.40731944767446       -0.20626905523165
H           -4.43572168060850       -0.86345469440802        1.27026949282035
H           -6.14881438042563        0.68360457586471        0.42497934901492
H           -5.97645239964897        1.59134813562287       -1.86562068617704
H           -4.05362448046557        0.97979184919043       -3.28614298923034
H           -2.33636580980976       -0.56167900917545       -2.44155002577365
C           -4.65408580100204       -4.10263132415232        1.46806706461125
C           -5.00442164095781       -3.27135851268866       -0.75538676480294
C           -6.82286338910600       -4.26237573525189        0.45855372893224
C           -6.32840271222254       -3.66023582165406       -0.68687773329113
C           -5.98060675324411       -4.48476570339792        1.53487223714312
H           -4.00198841564636       -4.26848605428188        2.31375178659166
H           -6.35828612032933       -4.95752929223457        2.42955104885661
H           -7.85880249500947       -4.56189162966992        0.51014559393841
H           -6.97743485872944       -3.49593256164562       -1.53417399321836
H           -4.62182029653775       -2.81837307533501       -1.65732605793378
