69
 energy: -105.697226117932 gnorm: 0.000364632529 xtb: 6.5.1 (b24c23e)
Si          -0.17540618397950       -1.41311815190702       -0.95159097257568
O            1.41063343255386       -1.29521639381309       -0.58272932152904
C            2.23501093804925       -2.15003065615723        0.17436632841964
C            1.96371562765969       -1.95928929439705        1.64498923600285
H            2.03318763814396       -3.18822650932259       -0.11096810866390
C            1.84358119071514       -0.67349428558782        2.15646895893267
C            1.81344052382437       -3.04566747915918        2.49380972935391
C            1.57172523203086       -0.47527617716683        3.49745401064176
H            1.95079635895094        0.17528086311793        1.49527709199540
C            1.54918375889562       -2.84660781981507        3.83746144930408
H            1.88549380060746       -4.04634223095521        2.09561088384644
C            1.42670550090171       -1.56297833964910        4.34164080695306
H            1.47253006711397        0.52974138232546        3.88304174572016
H            1.42850583561827       -3.69739038945384        4.49160375155548
H            1.21316982404533       -1.40984514163961        5.38952200728375
C            3.69991612736635       -1.80249161365321       -0.14787947861753
C            3.93326912784897       -1.83825221645624       -1.57546695466767
H            4.35158441837539       -2.51883558498569        0.35822537387996
H            3.91820027372771       -0.79996062026687        0.23179889933274
C            4.07160227557143       -1.83713681352396       -2.76401048595718
H            4.21182038041909       -1.85833114688930       -3.80312485414457
Cl          -0.90450113354002       -1.91046880838715       -2.79890149471212
Cl          -0.51900917206740       -3.34215461401185       -0.07723022193083
O           -1.23910072954992       -0.82463410589662        0.25794289688209
O           -0.07015066031735        0.27189380423907       -1.63470294132014
C           -1.57429419131705        1.54529752032264        0.28857255796987
C           -0.21422299597898        1.87289064030688        0.06777036942365
C            1.82586444822110        1.45532675907286       -1.09528009282500
C           -3.37182434445053       -0.01426047620826        0.08541555292631
C           -4.33845555281651        0.93196873885547        0.28530675692907
C           -2.54580616368526        2.51883481036224        0.60852092122376
C           -3.88019172475993        2.23777861142241        0.61196808585788
C            0.45197075643323        2.91431337741885        0.75094954930937
C            1.76724592585049        3.18843167869957        0.52346379118555
C            2.50742340018110        2.44154073165910       -0.43058720170049
H           -2.20600332026300        3.52563173621742        0.79235622018539
H           -4.58263914046630        3.02049869450782        0.83908806116018
H           -0.09636059468576        3.45782871226229        1.50339821953538
H            2.25011160763004        3.96846827423196        1.08898655344054
C            3.97580915227213        2.73551914925290       -0.66436696923557
H            2.26534806345102        0.81086195404237       -1.83823977407501
N           -2.05809975072191        0.25939967681948        0.14507050534931
N            0.52947726428458        1.20459032455262       -0.87488326229933
H           -3.58476841279975       -1.05600648939220       -0.09547684325290
C           -5.80266427045156        0.55126938334340        0.17116318796719
C           -6.12669533394370       -0.52183134279743        1.22051124237055
C           -6.72739927839818        1.74959132834224        0.39961223141714
C           -6.06212273214763       -0.00327736046543       -1.23664904505404
H           -5.91644643683125       -0.14924536311860        2.22071742889326
H           -7.17961885834333       -0.78769342073157        1.16622656868270
H           -5.54023240685040       -1.42154212017024        1.06036868967294
H           -7.76146920969377        1.43320375543793        0.28504285851656
H           -6.61047805202939        2.15045523658309        1.40372354335791
H           -6.53495239931228        2.53623898125869       -0.32609963813793
H           -5.46741611233159       -0.89116063829315       -1.42926029133014
H           -7.11177887925273       -0.26589321989914       -1.34479456837338
H           -5.81436541450331        0.74263799025713       -1.98856462939488
C            4.75115342966516        2.40373162759853        0.61916702958503
C            4.55310025991683        1.91641368138129       -1.82115966248287
C            4.14680706043480        4.22465678782282       -0.99961457807729
H            4.63591935071617        1.35224671514860        0.87304149428402
H            5.80988803144009        2.60721821511022        0.47842648691958
H            4.39704760195384        2.99648987089967        1.45876626636540
H            3.84147567823833        4.86135916445343       -0.17416302167634
H            5.19077333388853        4.43546906171280       -1.21836908749412
H            3.55311356384280        4.48508265547307       -1.87291506277847
H            4.49822064460703        0.84832908169640       -1.62885446270092
H            4.02658118779670        2.13347910133259       -2.74735799700486
H            5.60007236225317        2.17668374662896       -1.95975432062302
