69
 energy: -105.693761597611 gnorm: 0.000560866457 xtb: 6.5.1 (b24c23e)
Si           0.53970311919302       -0.65519657992557       -0.98042477011143
O            1.54678036828669       -0.79791903141929        0.27563837577868
C            2.92389870222050       -1.07887036065373        0.30782030763028
C            3.20887524478386       -2.52705402053895        0.00716781480064
H            3.43656175750316       -0.45093396131188       -0.43227119633572
C            2.30604912770305       -3.50657071737545        0.39483131328306
C            4.37487307222044       -2.89388484162388       -0.64944379125709
C            2.56023636302258       -4.83773675053236        0.11895156510422
H            1.39497565636863       -3.21319053798217        0.89464295994232
C            4.63233698919510       -4.22621426190641       -0.91686944042692
H            5.07298118716495       -2.13213768394008       -0.96471710687088
C            3.72514429626153       -5.19998958039057       -0.53504959982565
H            1.84570415022933       -5.59271780801502        0.41224962436169
H            5.53877022142313       -4.50432197340696       -1.43426871483083
H            3.92295299808793       -6.23916474709242       -0.75359228115797
C            3.41796932094740       -0.71283291802631        1.72129231799592
C            3.02220954972413        0.63825583775959        2.05199710694500
H            4.50434056347323       -0.81827159014881        1.76377622475047
H            2.96259218838985       -1.39926852115560        2.43934693544236
C            2.63192075616851        1.74606728001423        2.28062678527034
H            2.29654713640630        2.71035931931942        2.51959081784715
Cl           1.97706309004835       -0.92591558759638       -2.58044230909465
Cl          -0.62831412556464       -2.22234716550073       -1.67628908895883
O           -0.68966311314256       -0.27546894635266        0.30218080557791
O            0.26536781844973        0.91032038607489       -1.63467806941239
C           -2.14585202130140        1.47829549717230       -0.25127073273475
C           -1.06599391764137        2.38941559291515       -0.32784943588887
C            1.25984159254476        2.77480149633048       -0.73770915919330
C           -2.90328614297521       -0.77015027848912       -0.08116834270715
C           -4.22171888167071       -0.43373019578585       -0.26863551070995
C           -3.49844713596813        1.86460376387460       -0.36705957034614
C           -4.50918031933971        0.94714216023349       -0.38169945181578
C           -1.14494691918119        3.72947976624660        0.11142959413904
C           -0.04982538900053        4.53859946761038        0.15007039577100
C            1.22915297485136        4.04632355394191       -0.24142205071461
H           -3.71525636699051        2.91205653201787       -0.50117562194129
H           -5.52409651261046        1.28639429712600       -0.49740439996238
H           -2.09806010300302        4.08817017284430        0.46559034356267
H           -0.15300805257918        5.55307308327467        0.49775849198557
C            2.45725273778944        4.93363544759427       -0.18694663486011
H            2.14470997651691        2.30260484343408       -1.12966262914632
N           -1.92201937058266        0.13558615551228       -0.04167569247912
N            0.15875914109302        2.01010397353689       -0.83509404694201
H           -2.56508614015231       -1.78381069825579        0.05442222442637
C           -5.26525694179471       -1.53052405446867       -0.35681135838436
C           -5.21806799855909       -2.38619131238910        0.91681619920079
C           -6.68049590618462       -0.96749628944627       -0.50966316222131
C           -4.94609323670915       -2.40170708125558       -1.58037298130724
H           -5.37585093916523       -1.76628544069390        1.79686865373354
H           -5.99940749747458       -3.14166323008838        0.88372757062946
H           -4.26300989772491       -2.89213974756126        1.01758115424393
H           -7.39048458146131       -1.78891179006720       -0.57050316410216
H           -6.95186750215586       -0.35153161995286        0.34477663418434
H           -6.77259803706699       -0.37960635199290       -1.41965151429442
H           -3.94698006869634       -2.82280618324352       -1.51645034816120
H           -5.66264517229813       -3.21625427941866       -1.65425743974539
H           -5.00393988645666       -1.80834563211796       -2.49000861688303
C            2.56850825800856        5.61850114661482        1.18172184228879
C            3.74427558878135        4.14159247231622       -0.43350814455311
C            2.30973210906496        6.00355610097230       -1.27982216636361
H            2.67807110719625        4.88077159405404        1.97172022185200
H            3.44525487541242        6.26166134976563        1.19886370859513
H            1.69942355342939        6.23208304336060        1.40046903559209
H            1.42831741062737        6.61679141757614       -1.10979751916534
H            3.18324027988146        6.65099107864763       -1.28785384814898
H            2.21783687518135        5.53507291404290       -2.25692229513349
H            3.82985995491395        3.31241503013894        0.26564750276571
H            3.78074415457753        3.75519287637491       -1.44856838418731
H            4.60345191031308        4.79432411944320       -0.29654993733654
