69
 energy: -105.691766204773 gnorm: 0.000480289727 xtb: 6.5.1 (b24c23e)
Si           1.05027828066156       -0.14448328489782       -0.32747113746071
O            1.80588465995319       -1.35561532988354        0.49255493631643
C            1.61116466285944       -2.74442509188073        0.45879261290459
C            2.87068737758991       -3.42865492208088       -0.01650599702910
H            0.78803110769771       -2.99135666210876       -0.22419849308284
C            4.11312519517797       -2.89343511027443        0.29266764219424
C            2.79908675417498       -4.61002533933985       -0.74166130173374
C            5.26973980196671       -3.53036264528211       -0.11972869275426
H            4.16151851663103       -1.96673464772276        0.84392827946779
C            3.95636419550520       -5.24913008956722       -1.14925953006296
H            1.83322271699963       -5.02472533007888       -0.99369148349823
C            5.19384647791712       -4.71113895115868       -0.83840536773877
H            6.23276767325543       -3.10411915108461        0.12118661807384
H            3.89241709089540       -6.16677275759869       -1.71596061921928
H            6.09684378468323       -5.20933807446265       -1.16022379848222
C            1.26441729688355       -3.24621983732890        1.87715781036059
C           -0.06322005636380       -2.84606077321897        2.28442187978860
H            1.33936298598768       -4.33719868236685        1.89268500699718
H            1.99689854308831       -2.82913966131289        2.57226615101880
C           -1.16958789848771       -2.51549412258050        2.59982336563054
H           -2.12831631390126       -2.21424790450454        2.90037870557841
Cl           2.47742919200477        1.13645965882132        0.47697742544654
Cl           0.67554068833111       -1.19103753397770       -2.09095752050364
O            0.37287037508619        1.25753792771104       -1.32046814858912
O           -0.36191823591578       -0.09368859546899        0.64277630567159
C           -1.16916837652858        2.55028803783994       -0.11761959481257
C           -2.05583061977796        1.44934603229752       -0.02084880118853
C           -2.38927165716400       -0.91655436352205       -0.05565773953476
C            0.94998164961250        3.41468048670509       -0.76752457266365
C            0.68890175110349        4.66998372503279       -0.27535575981217
C           -1.49190872768742        3.84475297084849        0.34035292561718
C           -0.59759625209658        4.87463946289100        0.27539242394352
C           -3.45584167481982        1.58195243503287       -0.13911424751179
C           -4.27722568892292        0.50025715632972       -0.26433219583437
C           -3.73338993749173       -0.81414432175052       -0.28436546452223
H           -2.45595410348011        3.99172220034276        0.80012536420396
H           -0.87928000044483        5.83870684921853        0.66254907446324
H           -3.86286786754605        2.57881990871380       -0.19681317710896
H           -5.33612222751869        0.65334613411602       -0.37797437391538
C           -4.55071616365746       -2.06602992210456       -0.54407417462066
H           -1.86672461065177       -1.85598972881458        0.02931123676645
N            0.06269483582170        2.41838369041284       -0.71621117464471
N           -1.60260875465500        0.15344592863791        0.13811032092145
H            1.88212947083951        3.14490319964644       -1.23384482200401
C            1.77499652482530        5.72698937990566       -0.31505631878146
C            2.29739348069766        5.88026580982489       -1.75020575653383
C            1.26913875125496        7.09099331215254        0.16164933811517
C            2.91429467927593        5.26957154088049        0.60748737936392
H            1.48202864059197        6.12564385490041       -2.42741223017405
H            3.03178766743152        6.68106700378273       -1.79225779268397
H            2.77362202923854        4.96931461316124       -2.09843176659540
H            2.07670225837382        7.81664843345859        0.09985426976613
H            0.45023478207025        7.44404473874622       -0.46135729198168
H            0.93970110191041        7.04845639779376        1.19685694284601
H            3.27975425262182        4.28696379018993        0.32337490761265
H            3.73782449518106        5.97821020081236        0.56264456120101
H            2.56434955984114        5.21068940287897        1.63540691009578
C           -3.98982751670090       -2.76491478387364       -1.79060402055538
C           -4.44810537952081       -3.00412580803150        0.66699128840142
C           -6.02808200542065       -1.74772443968030       -0.78785000113090
H           -2.94915372377424       -3.04356909062779       -1.65370817787603
H           -4.56158761622380       -3.66546691495868       -2.00216082284198
H           -4.05274380235254       -2.10544948919612       -2.65317368254540
H           -6.15038347300672       -1.09264482163835       -1.64703171656483
H           -6.56673518956146       -2.67043712299074       -0.99085010084337
H           -6.47923753620242       -1.28217887943945        0.08540823951431
H           -3.42347811057915       -3.32396755967948        0.83458602600640
H           -4.80824851231992       -2.50351017255035        1.56362064646761
H           -5.05741827525381       -3.88982736601822        0.50259727266896
