69
 energy: -105.696602225082 gnorm: 0.000308461602 xtb: 6.5.1 (b24c23e)
Si          -0.41895687239862       -1.54855242530471       -0.34590328723790
O            1.19561847698031       -1.45458047449143       -0.16500127882160
C            2.12762282177417       -2.16429083483804        0.61702665175955
C            2.87415593711074       -1.14731683326506        1.45384146470367
H            1.58254279255001       -2.84579737044812        1.28590263793934
C            4.25630286140472       -1.12293854907072        1.58313951994474
C            2.12409342243734       -0.17922090662911        2.11582172424930
C            4.87184432124194       -0.15430829586032        2.35965290856106
H            4.86996944606749       -1.86032694206882        1.08947394897937
C            2.73830686095169        0.79357167832451        2.88049945220393
H            1.04826504484351       -0.20083500590136        2.03024094704022
C            4.11809028274432        0.80872490921340        3.00633214109689
H            5.94801188509578       -0.15157308754081        2.45385794187175
H            2.14003816176584        1.53888835718940        3.38416528839152
H            4.60195496695919        1.56384068411700        3.60863232474732
C            3.01585864817997       -3.00388552762806       -0.31407312642598
C            2.18895085877985       -3.87290512037383       -1.12715535304501
H            3.69677791040960       -3.61204741734102        0.28573480617620
H            3.59360982455561       -2.34319302212390       -0.96769342966832
C            1.46247708626069       -4.55453994103324       -1.78878714850186
H            0.82871064970126       -5.15673553464452       -2.36766234506040
Cl          -0.77025529649750       -3.14761509366474        1.04711657374360
Cl          -1.40871974029539       -2.43708399199886       -1.89960524917455
O           -0.29244493561903       -0.11189939429479       -1.46393797015823
O           -1.30966304552715       -0.54286066488247        0.73844292231746
C           -0.40470176024010        1.93152055674385       -0.32846923110083
C           -1.75668060074479        1.67960673163705        0.00747197579599
C           -3.49317148810902        0.08370690830318        0.39073006279225
C            1.64353611279759        1.12010869317029       -1.23357238225021
C            2.33756209493395        2.25508564131045       -0.90508499030810
C            0.26080264531050        3.14374191496194       -0.04599181645423
C            1.58566639857908        3.30707720828960       -0.32084432131061
C           -2.75830607023471        2.67295816627778       -0.00232387030705
C           -4.08051181859684        2.36492401580914        0.12984383646812
C           -4.49173300534351        1.01195857388069        0.28058927929397
H           -0.29735759612052        3.92573658339875        0.44331566968751
H            2.06529780195612        4.23996509983062       -0.07517132938227
H           -2.45387670620180        3.69184053896247       -0.18157560349613
H           -4.81099627568579        3.15400107706728        0.09192431873513
C           -5.94178018695416        0.56960537238057        0.33998948859930
H           -3.66827971547012       -0.96443760694088        0.57485549764317
N            0.33510459445625        0.98203718343839       -0.99259070178928
N           -2.19266959683152        0.40749959591828        0.32268741425023
H            2.07854353121180        0.26404812273049       -1.71925064683165
C            3.81619633226804        2.42358599642107       -1.19018504006475
C            4.47480256237397        1.09728143579457       -1.57696330087242
C            3.97352765926535        3.42165875395959       -2.34713506910813
C            4.52761112354074        2.96258365140347        0.05819971750505
H            4.08287143281351        0.71937627589911       -2.51780175461433
H            5.54550120581534        1.24543435026173       -1.69888315791540
H            4.31990188191526        0.35610141776839       -0.79622343366269
H            5.02721561282037        3.57156706919604       -2.56974111040855
H            3.48105476891468        3.04615406176865       -3.24128588209272
H            3.53525548849357        4.38382900472389       -2.09405044117751
H            4.35154561072807        2.30279401968082        0.90439531326686
H            5.59868687446991        3.01411981275318       -0.12242726130717
H            4.18571148822712        3.96018665165935        0.31812574190127
C           -6.19500557610026       -0.45271311540392       -0.77688754071848
C           -6.21428388701718       -0.07482801259869        1.70685775659515
C           -6.90852612910197        1.74181986927049        0.15336985472398
H           -5.56636549820923       -1.33062025901085       -0.66294408107596
H           -7.23417553232413       -0.77263699913512       -0.75864550004483
H           -5.98752636014624       -0.01007755658196       -1.74853473330179
H           -6.75045392392633        2.23004521037429       -0.80538399067619
H           -7.93097400872992        1.37219228873943        0.17711541886488
H           -6.79964278783446        2.47280725493151        0.95121094647031
H           -5.59699389929342       -0.95524927197688        1.85844627239678
H           -6.00651896867332        0.63216031872764        2.50728574969584
H           -7.25735619847874       -0.37437780123497        1.77437280995346
