69
 energy: -105.694519351963 gnorm: 0.000352169728 xtb: 6.5.1 (b24c23e)
Si           0.56715098658792       -0.51350163067047        1.24233502208285
O            0.82574629015964       -1.85809175754813        0.38217278891769
C            1.36842471434817       -2.08477030286373       -0.89493389513387
C            2.63692301944391       -2.89588545841354       -0.78437669014308
H            1.58600985069017       -1.12620977195947       -1.37623760305093
C            2.89222146584829       -3.66917819292670        0.33867811859586
C            3.55555187486736       -2.88158007366246       -1.82686280589838
C            4.05548148318046       -4.41488204693381        0.41970560213458
H            2.18224828481516       -3.66738113099859        1.15112826562098
C            4.71426929638068       -3.63201580021656       -1.74654156491430
H            3.36230287116292       -2.27486521914013       -2.70111649483666
C            4.96698109804717       -4.39986656818874       -0.62168759811858
H            4.24962187753556       -5.00858598973458        1.30060976452095
H            5.42448407069073       -3.61336199090288       -2.56058206778640
H            5.87502713889507       -4.98128868275017       -0.55736175598721
C            0.32030148010892       -2.84199108519954       -1.73780743389113
C           -0.74156926593025       -1.95525866957124       -2.15619530771968
H            0.80629351865610       -3.26989873577688       -2.61827651923015
H           -0.08722473642414       -3.65203532706162       -1.12798176497163
C           -1.58945453081403       -1.18081583813772       -2.49347397924730
H           -2.33931663364677       -0.51570788751305       -2.80232805944824
Cl           2.08863317315920        0.62911760195376        2.07613117982945
Cl           0.27560347447820       -1.66703019819884        2.99517416374568
O            0.64425086357779        0.51275006510171       -0.30227335862646
O           -1.01797657396621        0.09596964131710        1.47708242213253
C           -0.84298445641837        2.32584572829596       -0.31506127052429
C           -1.95871753254019        1.45819461602371       -0.24787030984703
C           -2.90434433723061       -0.63612877288946        0.40806196174371
C            1.51368487486202        2.63651081364629       -0.20558683172613
C            1.42725241375115        4.00525155295467       -0.27687646572937
C           -0.96001574130313        3.72455127653932       -0.46730541835659
C            0.13021952539110        4.54539014996548       -0.44282594618630
C           -3.16631501641696        1.70860453071075       -0.93654124347189
C           -4.17950080702070        0.79714483955267       -0.98057348896568
C           -4.04568816482131       -0.45746502119231       -0.32277001188578
H           -1.95042307191770        4.14299335306117       -0.54519536728889
H           -0.01173374725509        5.60846557336866       -0.53334247743311
H           -3.24805578434079        2.63346349368324       -1.48528745828111
H           -5.07089386722873        1.02710110234682       -1.53829889282298
C           -5.09899619784553       -1.54816285213882       -0.36536838247807
H           -2.71070732014364       -1.51088732428185        1.00765545525296
N            0.44284985810921        1.83879250729619       -0.25009917506120
N           -1.93583031260542        0.28974667212607        0.48745402844413
H            2.44846241130561        2.10945862228372       -0.11213325767377
C            2.68689854393587        4.83935396296587       -0.14899202516660
C            3.70842979925401        4.39809337465352       -1.20652730667115
C            2.40941466051251        6.33275492971760       -0.33884643736043
C            3.26546504288221        4.61887980228943        1.25640330254845
H            3.28164392368605        4.47808433679960       -2.20419593497677
H            4.58888894845052        5.03424693479726       -1.15753244721865
H            4.02593026336643        3.37225692906057       -1.04726753419835
H            3.34050504720978        6.88694399785723       -0.24680700696019
H            1.99508409299502        6.53225403321106       -1.32466921439646
H            1.72508651192724        6.70434573384271        0.41991684314321
H            3.46550218662232        3.56731304634571        1.44094903210312
H            4.19309593489855        5.17497930003040        1.36888744567130
H            2.56257987149079        4.96435170065361        2.01100571368550
C           -6.20007108964661       -1.24103360295874       -1.38420997122951
C           -4.44146046819345       -2.88076866594824       -0.74985177851560
C           -5.73481608692963       -1.66552831520692        1.02767997187409
H           -5.78368723784823       -1.10816598524899       -2.38009530331342
H           -6.90015630704324       -2.07231288569438       -1.42084879077680
H           -6.75859252033075       -0.35031183637989       -1.10673256993520
H           -6.19482099778492       -0.72256231588489        1.31567053176157
H           -6.50173545908839       -2.43632485955390        1.02396184460276
H           -4.99044018061928       -1.92470127358951        1.77525080776085
H           -3.90936978026653       -2.78553693155214       -1.69376978666204
H           -3.73402367830305       -3.20749197518215        0.00579661938426
H           -5.20147583924990       -3.65140024637265       -0.85508688122876
