69
 energy: -105.697768122103 gnorm: 0.000537917252 xtb: 6.5.1 (b24c23e)
Si           0.25521969841312       -1.18571134131309       -0.39432022826360
O            1.64338613748115       -0.52865248481908        0.15380737643190
C            2.61627382400288       -1.07060902325137        1.01273010800096
C            3.49505709007705       -2.06523289688415        0.29925414428485
H            2.11662694183071       -1.56493280053794        1.85367658969081
C            3.77131785171017       -1.91513600360182       -1.05181355303669
C            4.04400761269118       -3.13515382004310        0.99237213178120
C            4.57948667067068       -2.82771496865316       -1.70561940930413
H            3.33002505710389       -1.09294677617746       -1.59542307997132
C            4.85801566149650       -4.04286543998945        0.34003800693578
H            3.81748143494515       -3.26328556588013        2.04079127686397
C            5.12686024587010       -3.89140647165784       -1.01003285413870
H            4.77796783593398       -2.70930417096097       -2.76066778447268
H            5.27532370835973       -4.87718918366840        0.88444880209429
H            5.75543378153681       -4.60626994090237       -1.52047479779707
C            3.45952665745159        0.10290240396131        1.54785821638390
C            2.60965214491400        1.06124959033244        2.21961139558158
H            4.20999763883140       -0.28540243208924        2.24040656293783
H            3.97043686287264        0.58354370693447        0.70881165644751
C            1.85292587110165        1.82868266524278        2.74012759674371
H            1.21009164163548        2.50496235930906        3.21926813275575
Cl           0.03380975794890       -2.10848861565949       -2.21461487012778
Cl           0.35842648845347       -3.02508327290381        0.71848192009090
O           -1.11465867038403       -0.80224978190997        0.56590823825545
O           -0.02948084856654        0.34189840162175       -1.33687521808522
C           -2.27637858385832        1.20687946900589        0.00159831624619
C           -1.10558222904938        1.99862226626197       -0.07759276335021
C            1.16606963083617        2.22173444235094       -0.76069695469666
C           -3.30321697942918       -0.94825334203217       -0.09298143416309
C           -4.56065644567853       -0.44358891891215       -0.27743229012885
C           -3.57627971539946        1.75384660422116       -0.07625825552055
C           -4.68497385983714        0.97133706380177       -0.20974053332964
C           -1.03199196068306        3.32485015311527        0.40381753350141
C            0.11458913881443        4.05446553215312        0.31076361612803
C            1.27914301609851        3.49974058075275       -0.28052217651497
H           -3.66936305307134        2.82798279380479       -0.09196317710054
H           -5.65158419781704        1.43717275670254       -0.28980594150919
H           -1.90256492196941        3.73584149285623        0.88931597582842
H            0.13667880155357        5.05804027035621        0.70334907551556
C            2.54903461675201        4.31933011578572       -0.38607466495471
H            1.96283669653517        1.68858526958429       -1.24936411632869
N           -2.22650935948196       -0.16990470245072        0.10032842711829
N            0.02712787033724        1.52317710150843       -0.69275603873593
H           -3.08309589623550       -2.00325081607902       -0.05073503996327
C           -5.72299330037553       -1.38667281642108       -0.52434682163118
C           -5.88415809353539       -2.31589475487879        0.68677641738200
C           -7.03836211292665       -0.63384789591385       -0.73813289457460
C           -5.42651287770605       -2.21686183678813       -1.78088724318364
H           -6.05971939710294       -1.73464590831153        1.58905567042244
H           -6.73150541149846       -2.98009414947352        0.53469818884933
H           -4.99806901468741       -2.92443832965698        0.83857709959003
H           -7.83428921990601       -1.34839587537893       -0.93432320613573
H           -7.31267929703142       -0.06282636398324        0.14555446737723
H           -6.97103587914769        0.03589926119748       -1.59188394530193
H           -4.52647187956941       -2.81216729217505       -1.66010307328476
H           -6.25575643548219       -2.88960692946989       -1.98618025984045
H           -5.29051296220474       -1.56494574194625       -2.64085074099079
C            2.98170095140231        4.76404694058480        1.01797152030751
C            3.69565753270035        3.52704100162754       -1.01619992150808
C            2.26736686224664        5.55081634029085       -1.26003962059739
H            3.13417507967026        3.89452615107563        1.65357974453775
H            3.91320360271373        5.32194242691798        0.95945605077996
H            2.23478229427227        5.40336752217145        1.48017635414398
H            1.49097357385998        6.17534658889455       -0.82678254911243
H            3.16964354122826        6.14931370655091       -1.35982776957244
H            1.94537534568806        5.24404220956031       -2.25270463778977
H            3.92204095028427        2.64389729400482       -0.42514941277926
H            3.45514754420770        3.22792875704469       -2.03341598511880
H            4.58876193810039        4.14696342519098       -1.05107635008909
