69
 energy: -105.695411781828 gnorm: 0.000390207717 xtb: 6.5.1 (b24c23e)
Si          -0.37326488832298        0.74740960566664        1.25961274793885
O            0.03216158426556        2.03692064435383        0.37277895443843
C           -0.27072789252715        2.42285224746081       -0.94440631884394
C           -1.02939319667243        3.72805340043456       -0.93959718922637
H           -0.87309309213542        1.64595709723198       -1.42562627464179
C           -0.95085184408663        4.59093877348611        0.14385015497618
C           -1.79987762081685        4.08207102338586       -2.04029242243524
C           -1.63756710687944        5.79250901358033        0.12707587122656
H           -0.36330389390912        4.30491518379152        1.00242048320171
C           -2.48073421024787        5.28567043731126       -2.05739749328594
H           -1.86913052699318        3.40817021110065       -2.88339425583715
C           -2.40056650986666        6.14375124282336       -0.97299191639208
H           -1.57579558713523        6.45539392352355        0.97732062621142
H           -3.07952962042620        5.55247569875131       -2.91626513134401
H           -2.93619975579460        7.08164939691586       -0.98546786606895
C            1.05335788502947        2.58226086543618       -1.72180697051360
C            1.62639969400361        1.29254168221874       -2.03385580190252
H            0.86278015432243        3.13046480729150       -2.64803741714576
H            1.74394570655126        3.16044275010142       -1.10283569415476
C            2.05037575982155        0.20222044500011       -2.28674256045377
H            2.43622561437179       -0.74456075673929       -2.52084306793146
Cl          -2.30878606497125        0.39497025704448        1.93171603726116
Cl           0.21521477269495        1.73590585384584        3.03446249463183
O           -0.74111776488260       -0.22505112132715       -0.28451789156844
O            0.79331892666061       -0.44642614773831        1.63722575358434
C           -0.20016762214409       -2.50132491921519       -0.10630581574840
C            1.17228850786340       -2.19745607134240        0.05528031675848
C            2.86555007970005       -0.62280665449420        0.67496031476687
C           -2.45196431042490       -1.75207444517178       -0.27354673733060
C           -2.96900183649051       -3.02376883227059       -0.31545537346478
C           -0.69562855236063       -3.81946989319185       -0.21024024883049
C           -2.03181177579897       -4.08268077981427       -0.30516903120717
C            2.20465108203796       -2.99453842648268       -0.48972205578494
C            3.50376784963724       -2.58613176372656       -0.48858352716541
C            3.86446683185228       -1.32128168380279        0.06223731289310
H            0.01222107766878       -4.63072475574894       -0.15657630441849
H           -2.36245041658772       -5.10583106531883       -0.35556103445320
H            1.92773418185757       -3.92128362947859       -0.96671748747579
H            4.25841588231774       -3.21359989061046       -0.93387514063312
C            5.28698617761830       -0.81301363830149       -0.04552049918121
H            3.01012941095767        0.30866082609253        1.19584298839090
N           -1.14189064714436       -1.50215076269265       -0.19965920045947
N            1.59790821203638       -1.06979655698392        0.72750064681454
H           -3.06444761851896       -0.86653081551349       -0.30105207473077
C           -4.47279933571147       -3.21533418657607       -0.33619907288556
C           -5.08039148924991       -2.42098021116971       -1.50092643137761
C           -4.86305309657984       -4.68636199147131       -0.50043552017014
C           -5.03655711413509       -2.69781465682033        0.99527787888438
H           -4.62946563760765       -2.72335380303489       -2.44383736184395
H           -6.15019510126713       -2.60731261230072       -1.55639915730557
H           -4.93255620010665       -1.35317356582132       -1.37328396955730
H           -5.94687282084702       -4.77088431402595       -0.52767357712727
H           -4.46983411060496       -5.09423935557863       -1.42908368330907
H           -4.50432239071316       -5.28376617027722        0.33405840854868
H           -4.76839305887092       -1.65797028648720        1.15911984236995
H           -6.12051380150679       -2.78362410509991        0.99977372682309
H           -4.64075749147650       -3.28099379147113        1.82354833094068
C            5.66901446158714       -0.72605802356463       -1.53056365241610
C            5.44766170357644        0.57643495663167        0.57414137945199
C            6.22458315240038       -1.78840456932601        0.67986590717919
H            5.00057459067697       -0.04179753943378       -2.04862596778850
H            6.68614609261702       -0.35508042938860       -1.63061802044655
H            5.61476090186969       -1.69780038016800       -2.01404995476650
H            6.19350304269591       -2.77796126705382        0.23205328438860
H            7.24807110306867       -1.42486015505950        0.62980546465686
H            5.94047139961659       -1.87595463259656        1.72605029457307
H            4.79142132296791        1.29421365595769        0.08836006086516
H            5.23280636980467        0.55875915274666        1.63947445294661
H            6.47338347166051        0.91403850451037        0.44423743689984
