69
 energy: -105.688737075395 gnorm: 0.000335356096 xtb: 6.5.1 (b24c23e)
Si           0.23251253223842       -0.69595062396565        0.39450455382934
O            1.56968938449801       -1.47423077462416       -0.16778745463730
C            1.96315530027567       -2.81519085261038       -0.09917032646559
C            3.14611701522565       -3.03519626732793       -1.00874101273122
H            1.12703319211992       -3.45327611410322       -0.42225182071949
C            4.10264298127459       -2.04240487495058       -1.16704334819113
C            3.30873326644351       -4.24683688168036       -1.66697357026337
C            5.20283470858380       -2.25484240680782       -1.97830970194686
H            3.96552373822817       -1.10126996545557       -0.65745502136787
C            4.41240198241270       -4.46125951146199       -2.47321793346764
H            2.56505492358765       -5.02237124443650       -1.54843358511730
C            5.36131459880940       -3.46526428664161       -2.63144021810566
H            5.94071940510634       -1.47489920727275       -2.10027183190432
H            4.52992014384533       -5.40650783411524       -2.98311342067575
H            6.22060020097410       -3.63207078418738       -3.26460644053374
C            2.35078172026958       -3.21107358682165        1.34453599607602
C            1.17945638859633       -3.39107862579322        2.17185075604820
H            2.92393050699639       -4.14163784666072        1.31427250468675
H            2.97547143885480       -2.41775351678120        1.76228875009265
C            0.17984615613824       -3.53681428698223        2.81336188673267
H           -0.68148539655814       -3.66053256574552        3.39834058344033
Cl           1.07681670727244       -0.06088720407003        2.18049366547450
Cl          -1.11736814528508       -2.18502429124714       -0.22353241470199
O            0.38325371992856        0.49217278741298       -0.81965545282769
O           -1.22760317343175        0.26838025355335        1.06226725064078
C           -0.96950399070819        2.43575756605942       -0.60653279398929
C           -2.17531183005361        1.69642586050722       -0.53414391994094
C           -3.35191207179013       -0.19238328191932        0.30292742369396
C            1.39219764114775        2.48452971356077       -0.25407406373356
C            1.44618060981479        3.85028261939687       -0.22200938570048
C           -0.92316567756691        3.84166806609154       -0.70420621245019
C            0.23747427384580        4.53662533987836       -0.52612358870487
C           -3.35662099210857        2.06305669306341       -1.21052898203443
C           -4.48265076660116        1.29186033733469       -1.15881699963556
C           -4.49656797604312        0.09935389661119       -0.39877281272826
H           -1.85242033228204        4.36733923494651       -0.85652432682756
H            0.22180025420329        5.61086692812243       -0.58417956708246
H           -3.33254548351477        2.95128233859367       -1.82125286403583
H           -5.35314600073866        1.59643863753592       -1.71387350800733
C           -5.67018796590133       -0.85932215355482       -0.34084988500708
H           -3.25738609108065       -1.05189240577028        0.94516092523413
N            0.26015564148561        1.81370484654748       -0.51425230467446
N           -2.25844733258704        0.57228941967519        0.25632257567007
H            2.24640776020261        1.84524539999917       -0.10213266208210
C            2.74298212768774        4.54417567543837        0.15043303630466
C            3.86882328391385        4.07559284297941       -0.78194866589753
C            2.63215404046902        6.06724709639546        0.04488809969914
C            3.08187430866838        4.17413663848773        1.60186066179391
H            3.60851600054258        4.27177401245421       -1.81979468614875
H            4.78709788091208        4.61022273563013       -0.55050726506766
H            4.06053791229667        3.01296344713692       -0.67034380321460
H            3.58402926252650        6.51768162003589        0.31652077392490
H            2.39356325564072        6.37274249493081       -0.97133165586602
H            1.87520086306811        6.45357307571988        0.72297249588098
H            3.17600430951327        3.09880367545041        1.72253427534552
H            4.01909265145378        4.64006906667765        1.89714831535786
H            2.29810645020398        4.52039930601061        2.27169653699612
C           -5.22592186162602       -2.19699698098372       -0.95048128686975
C           -6.09410506727822       -1.06767315554049        1.11972202280250
C           -6.87812805864513       -0.33966749512568       -1.12450561579202
H           -4.35811689950407       -2.59780759819579       -0.43489113957997
H           -6.03403613846606       -2.92207812537662       -0.88889075987792
H           -4.96077803499236       -2.06330030313098       -1.99673691458766
H           -6.63795924959170       -0.21314663001225       -2.17735481878035
H           -7.69075107526398       -1.05882955222449       -1.05263424782762
H           -7.22983817093750        0.60695197276003       -0.72026654021771
H           -5.30204395187126       -1.53029898488748        1.70022697613392
H           -6.34924847236130       -0.11569039176385        1.58058662352605
H           -6.96660733247848       -1.71534298677373        1.16271214064386
