69
 energy: -105.697587466548 gnorm: 0.000693361981 xtb: 6.5.1 (b24c23e)
Si           0.01517917515515       -1.30617588570266       -0.19587424128693
O            1.45956323545618       -0.72199548347281        0.28553172226421
C            2.41317258746694       -1.23757045087144        1.17892486269241
C            3.38889156903873       -2.14819789314928        0.47823785112414
H            1.90203733995765       -1.79217792300351        1.97378773878566
C            3.68368397189860       -1.96398567702380       -0.86473471948663
C            4.02046647731871       -3.16576512526801        1.18034669202730
C            4.59521111991433       -2.78747403450994       -1.50066275016916
H            3.17706272743630       -1.18570831641603       -1.41561496945451
C            4.93684634691900       -3.98455062545752        0.54596921914929
H            3.78150977280432       -3.32211924556732        2.22232588018987
C            5.22707930099312       -3.79641284004468       -0.79512924034879
H            4.80985355628477       -2.64201272812014       -2.54931276367010
H            5.42058433515905       -4.77721883163512        1.09765656652303
H            5.93861053630237       -4.44035063056199       -1.29089276902967
C            3.16248402033859       -0.03964008084520        1.79735061319855
C            2.22858482807955        0.88567896135180        2.40038254765613
H            3.86506157303225       -0.40906873071763        2.54772710192446
H            3.72463020012930        0.47105350983105        1.01020994097290
C            1.41466697336060        1.63602911943896        2.85510768259885
H            0.71850030140637        2.29528438709429        3.27977627997530
Cl          -0.28087441257742       -2.31930010532415       -1.95275067341949
Cl          -0.01167384714218       -3.05909594826292        1.04173873456590
O           -1.31729450952546       -0.77857881071673        0.74399736412443
O           -0.16876766198931        0.18915838080064       -1.22289023789466
C           -2.21680763952107        1.37248248053652        0.19336694942543
C           -0.96110541842970        2.00457058464847        0.02748361393607
C            1.27209395577608        1.92691114117762       -0.79575337456840
C           -3.53144809930258       -0.62251676108270        0.19292338735665
C           -4.71816453082699        0.04715568231587        0.08152257432224
C           -3.43376292104948        2.09000684162299        0.18931875778696
C           -4.64487567999773        1.46613994714004        0.13772468794651
C           -0.68811184010536        3.31614026638900        0.47729020949233
C            0.53591911249802        3.88902009827829        0.30677501163850
C            1.57932538006796        3.18309842980092       -0.34486483517918
H           -3.38198819071048        3.16673299947235        0.16563620340528
H           -5.54216070888895        2.05941558832509        0.11495086822463
H           -1.46638605612990        3.84190847112741        1.00685977641027
H            0.71337850157569        4.88215042636357        0.68586537871999
C            2.94431520784441        3.81687429185880       -0.51761201711593
H            1.96202990146657        1.29000184912855       -1.32140829657388
N           -2.34678735551481        0.00114356348152        0.30741934124575
N            0.06120272684277        1.38027862015380       -0.64266037962078
H           -3.45564681394163       -1.69745023586190        0.23866596342196
C           -6.01263835561113       -0.72854466263738       -0.07545183392783
C           -6.21034009211624       -1.63366259043790        1.14901261073547
C           -7.22580657034617        0.19713049076262       -0.19608780646093
C           -5.92428428621451       -1.58515487063107       -1.34636948387426
H           -6.23655755011447       -1.03886774107165        2.05950357349065
H           -7.15031563759130       -2.17356722009760        1.06317136281568
H           -5.40840756310421       -2.36026072024851        1.23762358754152
H           -8.12412287902766       -0.40176815801499       -0.32624722789323
H           -7.35227116257796        0.79787292182853        0.70152399917364
H           -7.13307949394643        0.85380214920222       -1.05784527140929
H           -5.10577923618264       -2.29639475252643       -1.28883693211675
H           -6.84926536362953       -2.13967862005789       -1.48571930204563
H           -5.76643405124435       -0.95365109053537       -2.21789150250737
C            3.51330826368995        4.14650865950792        0.87005062412585
C            3.92393635966541        2.89205594388218       -1.24316092222407
C            2.79686288882771        5.10525402454504       -1.34045062430814
H            3.53458123118868        3.25399015633024        1.49120293941728
H            4.52533255383249        4.53291871977719        0.77555340056537
H            2.91084562634724        4.89593202015997        1.37555688203252
H            2.14568432578603        5.82068002051032       -0.84612084552965
H            3.76991785266079        5.57043136644595       -1.47828039678271
H            2.37941435693850        4.88214893139416       -2.31976213282617
H            4.07458905860265        1.96885609618262       -0.68988456861480
H            3.57030578224573        2.65417875212282       -2.24339446771109
H            4.88796789305328        3.38696989688494       -1.33698291495336
