69
 energy: -105.689374203444 gnorm: 0.000927198839 xtb: 6.5.1 (b24c23e)
Si           0.37115093526775       -0.58082679354328       -0.08575734609155
O            1.38007758612651       -1.84052975754921       -0.10731422958712
C            2.42680449370995       -2.27702000999858        0.72177612799266
C            3.54341930441155       -2.83387558040484       -0.12235297932131
H            2.79494309096156       -1.44053889934931        1.32630308144713
C            3.26587652460607       -3.47159593718655       -1.32375418119678
C            4.85830911652013       -2.74388994769952        0.31513861532886
C            4.29243788340826       -4.00905601050764       -2.07980242735725
H            2.24333770935597       -3.52722824057057       -1.66444549048612
C            5.88265442523666       -3.28822133583552       -0.43866460483119
H            5.07706455980523       -2.24203390778230        1.24721488542732
C            5.60149936228343       -3.92205925885180       -1.63747160806834
H            4.06929263694943       -4.49936515369007       -3.01612758923341
H            6.90314733996720       -3.21361276018743       -0.09187784986621
H            6.40249441343367       -4.34410303262862       -2.22679714858439
C            1.88234593955494       -3.37656965197284        1.65832947592807
C            0.84620328204687       -2.84304758337736        2.51450930023896
H            2.70481058665372       -3.76992807593307        2.26093454283781
H            1.47115391959535       -4.18177789044961        1.04340290718626
C           -0.01966211738324       -2.34096500923926        3.17065140627859
H           -0.76784013788607       -1.91520620621133        3.76938703454840
Cl           1.51143203907272        0.55123929404509        1.41993137283359
Cl          -0.74616870047627       -1.66215445490617       -1.58136567121731
O            0.29881682738705        0.77275477718501       -1.14077016469351
O           -1.00736866512234       -0.23498531747205        0.87265356193706
C           -1.25735678818353        2.33854949465601       -0.28810227474233
C           -2.31845949649378        1.39282367456834       -0.23299408088678
C           -3.10118837679862       -0.83589161693878        0.12355071848437
C            1.06385556971167        2.85415514018538       -0.51474211722262
C            0.90259963367837        4.16789273963008       -0.16388219708389
C           -1.46296113257871        3.70638438506136       -0.01166258833417
C           -0.43128361447282        4.59859301992577        0.05268128419363
C           -3.62677236189660        1.71325374777827       -0.65041003697474
C           -4.61722592196171        0.77545866116517       -0.71704702167068
C           -4.35451554832368       -0.57183056071756       -0.36046779603106
H           -2.46638938600391        4.02552242380994        0.22102455463093
H           -0.63962666684956        5.62531337869228        0.29879915097411
H           -3.81329397068362        2.71905670406952       -0.99161071896523
H           -5.59011336644348        1.06493041551523       -1.07465686714801
C           -5.34461734343851       -1.70550854890555       -0.54113307494594
H           -2.78106888120664       -1.80914702573146        0.45519265255963
N            0.03640764547493        2.00411601199057       -0.62775169034535
N           -2.16114658311877        0.10906790239838        0.24247905410519
H            2.01994227538487        2.41031615075656       -0.73641327093256
C            2.12103302732285        5.05286702723865        0.01351882218803
C            2.99329415794140        4.99811344156151       -1.24842478227607
C            1.73984490750392        6.51259646493134        0.27231812531787
C            2.91381275080312        4.52586382032507        1.21845458697834
H            2.41565675284327        5.28983056031264       -2.12292316269139
H            3.83241355469134        5.68224928888199       -1.14690793517175
H            3.39153967469180        4.00205899092723       -1.41441108573165
H            2.64393862644679        7.10753261142725        0.37860568615662
H            1.16393513128803        6.91896849447630       -0.55614944636972
H            1.16709637449471        6.61265538914281        1.19082546928656
H            3.17920069382791        3.48100469388064        1.08680222243740
H            3.82462111092419        5.10524775885074        1.34985161847763
H            2.31810783388377        4.60584345395736        2.12464126678975
C           -4.81472193624187       -2.61009616296961       -1.66323892288080
C           -5.46692346302803       -2.50897446647874        0.76093692938262
C           -6.73667605051973       -1.19828335091723       -0.92646038571532
H           -3.80629623188670       -2.95065177763780       -1.44750742122099
H           -5.46256059543160       -3.47508649656514       -1.78387304682519
H           -4.78484090600634       -2.06465180697275       -2.60321962347688
H           -6.71674635541653       -0.68340272137838       -1.88356773892959
H           -7.41538361205883       -2.04290138104932       -1.01888168154298
H           -7.13260538906136       -0.52818975244120       -0.16648403003740
H           -4.53373855418036       -3.00274398658567        1.01264855219582
H           -5.74913537051483       -1.85756408759495        1.58530507741253
H           -6.23146117360611       -3.27439635912113        0.65126020514992
