69
 energy: -105.688966412350 gnorm: 0.000534678415 xtb: 6.5.1 (b24c23e)
Si           0.05006240189707       -0.91488661100732        0.91321627678095
O            1.35738776722464       -1.80251352259253        0.43452110086413
C            2.70397572343636       -1.47134940372884        0.24921501103745
C            3.38376197432539       -2.58035712215286       -0.51937285179814
H            2.76280758680940       -0.53807194454482       -0.32970815257707
C            2.96295963963417       -3.89455831398990       -0.37554265333375
C            4.46455773170246       -2.29834187694598       -1.34451915483369
C            3.61192763687141       -4.91276347439619       -1.05095552526338
H            2.11521203022053       -4.10466257695462        0.25754930879195
C            5.11622888327525       -3.31754878810606       -2.01533961746136
H            4.79539095087980       -1.27532214767767       -1.46218756164570
C            4.69131167787507       -4.62743002040706       -1.86937495810607
H            3.27468612631857       -5.93253482327843       -0.93671708755896
H            5.95551820596363       -3.08873634179128       -2.65633514949955
H            5.19922155682378       -5.42251760701867       -2.39562293345736
C            3.44676973499363       -1.27660211519805        1.59332368941656
C            3.23898790297639        0.03260267569375        2.16648782210167
H            4.51691723389889       -1.43068096377052        1.42801635872797
H            3.08259579217974       -2.03266703432815        2.29261387927897
C            3.07426837099741        1.12801731497094        2.62089667098408
H            2.90455166468978        2.05871998026618        3.07412168701563
Cl          -1.18716956991633       -2.34353512421338        0.06512157394462
Cl           0.36003554848868       -0.92355972781138        2.94666726205380
O           -1.43057107309577        0.11197273870922        1.38261786541685
O            0.49425587792349        0.36819651561424       -0.14359568474501
C           -2.20412278957986        1.45201778495307       -0.37762755900481
C           -1.01756707538723        2.22604374702687       -0.37310347030134
C            1.32429899979774        2.48167141807239        0.07169152909929
C           -3.45434316266847       -0.39543801821676        0.44484981094668
C           -4.51868618380469       -0.16977947230589       -0.39419499536936
C           -3.30295765692377        1.74325719330828       -1.21632981643734
C           -4.42171556396738        0.96070690068974       -1.23607152067154
C           -1.03802017779805        3.61173595109609       -0.65060457959151
C            0.06908992942699        4.39502805242330       -0.54153381420348
C            1.31637813404122        3.82643092825645       -0.14671274026010
H           -3.21643915721419        2.57621839888458       -1.89495657899029
H           -5.22073862802089        1.20784239541328       -1.91386265906828
H           -1.98717902702896        4.05519717470126       -0.90457369729774
H           -0.00628162140100        5.45165658241233       -0.73481310650770
C            2.54181346458155        4.70147491002352        0.02511172276240
H            2.20311519411330        1.92312960040889        0.35225812784415
N           -2.37186473533482        0.38487884803697        0.46872812416857
N            0.22770929618238        1.70541425482758       -0.06747600497731
H           -3.41534584373448       -1.21145576461404        1.14597276880111
C           -5.67863496137548       -1.14508732939666       -0.40953970593824
C           -6.18750435332205       -1.37633706041253        1.01973026834021
C           -6.84586463893388       -0.63665138255256       -1.25984601205380
C           -5.16867194064578       -2.46844201110046       -0.99866263480703
H           -6.45615055048755       -0.43116483805842        1.48620734858083
H           -7.06951617332309       -2.01188613236305        0.99867338502091
H           -5.43806049124226       -1.86511431705679        1.63355088095051
H           -7.66410286762737       -1.35137908400388       -1.21407281414509
H           -7.21055841241461        0.31903076379355       -0.88959030244488
H           -6.55755961817688       -0.53037348089640       -2.30262213561828
H           -4.30911997502670       -2.83660968617383       -0.44557176317789
H           -5.95579964691369       -3.21793167628932       -0.96856089608327
H           -4.86459505450450       -2.32761225558090       -2.03312156314793
C            2.32558082520120        5.59391914156368        1.25565560421576
C            3.81785918149409        3.87859807370936        0.22034435067488
C            2.72824066814991        5.57662219758191       -1.22282819594931
H            2.19818543414306        4.98460120192188        2.14723302613557
H            3.18408558980384        6.24499394486048        1.40158775966324
H            1.43977931195945        6.21299454255561        1.13782112652813
H            1.91042345356572        6.27984078491195       -1.34927825696043
H            3.64935446335699        6.14797227711636       -1.13685591744683
H            2.79083969454325        4.95580527357726       -2.11369501672139
H            3.77758410211404        3.28084920149771        1.12603707684872
H            3.98464716512258        3.21811229698416       -0.62733102671090
H            4.67126502286819        4.54818798307825        0.30022169717474
