69
 energy: -105.693788887620 gnorm: 0.000602814825 xtb: 6.5.1 (b24c23e)
Si          -0.19654894517557        0.78202496655970        0.62898665153312
O            0.36953592126334        1.76716922281804       -0.52557567919093
C            0.39813192635909        3.17731080342011       -0.49573662616581
C           -1.00110577477408        3.73461789287519       -0.44594046687421
H            0.94996443667759        3.50106683266048        0.39606169498604
C           -1.99146488021705        3.17725547858629       -1.24363487096196
C           -1.31894717746726        4.78400330050660        0.40352697624622
C           -3.28533205945524        3.66140082334783       -1.19029397800258
H           -1.74218171738241        2.34451097636995       -1.88460233371830
C           -2.61296037145882        5.27207200333866        0.45124288050414
H           -0.55434137935045        5.20595164127639        1.03913824419049
C           -3.59763169026403        4.71206734173804       -0.34443295114308
H           -4.05312466451605        3.21637557469578       -1.80651282954940
H           -2.85528665049701        6.08440285333932        1.12053747560024
H           -4.60930496920672        5.08790711449057       -0.29893170805273
C            1.12253923319507        3.66245840968113       -1.76281952703340
C            2.53587427878235        3.35916674544859       -1.71982866399266
H            0.98518930824477        4.74352528135396       -1.85301516301900
H            0.67041761387013        3.17258818446475       -2.62829439789879
C            3.70621610542705        3.11606864341310       -1.66658336447670
H            4.73440646987449        2.91218897203672       -1.63610874679908
Cl          -2.19272075001334        0.76007130861129        1.23772939067184
Cl           0.37072700164331        1.96316332138233        2.34900271014086
O           -0.57642796985159       -0.35887176839859       -0.73598134974404
O            0.87530075893625       -0.39479240555435        1.25781184569271
C           -0.21770361887049       -2.61231837499623       -0.18479896277541
C            1.17001951921471       -2.38140820287186       -0.03665887249176
C            2.96016223146525       -0.87134290325934        0.43547739273382
C           -2.40330514622880       -1.73865380064917       -0.52445501393375
C           -3.01310360035509       -2.95855558704860       -0.36350325891560
C           -0.80643443870653       -3.89203623748802       -0.09290271941228
C           -2.15796235957453       -4.06869369311066       -0.16789138353552
C            2.15139810623483       -3.31454982756331       -0.43706023774637
C            3.48015460431158       -3.01045287696097       -0.44068746056547
C            3.92297352707169       -1.72105849055899       -0.03406668754249
H           -0.15985389287074       -4.73287796854375        0.09941653587959
H           -2.56448222489574       -5.05955133678864       -0.06111273738129
H            1.81528379376880       -4.27269252342115       -0.79971666032092
H            4.18830115396647       -3.74842603532203       -0.77468844519194
C            5.37909848695935       -1.29438890369030       -0.04192040669658
H            3.16928579360985        0.10647929615968        0.83874076609848
N           -1.07906326098847       -1.57537604870886       -0.46050897617106
N            1.65922217215696       -1.19950423678556        0.48249374150494
H           -2.94627430171768       -0.82831766144128       -0.71402008879045
C           -4.52719563561183       -3.04085468329609       -0.37968294492966
C           -5.05659133597681       -2.48528242278832       -1.70895075621068
C           -5.02752835110357       -4.47869045748547       -0.22115749524886
C           -5.06636382736300       -2.20108727739553        0.78755483697779
H           -4.63777759331487       -3.03979640787070       -2.54615354863055
H           -6.13951427014638       -2.57728866403193       -1.74287235530539
H           -4.80254486624685       -1.43657148210562       -1.82746884927162
H           -6.11493141968528       -4.48466429183487       -0.23200519208359
H           -4.67990271401220       -5.10830021637118       -1.03714389640573
H           -4.70163800018541       -4.90453250191829        0.72468565457712
H           -4.73109122246978       -1.17012090403081        0.72371413908489
H           -6.15368768122348       -2.21473331826064        0.78485511699828
H           -4.71890889542302       -2.60749855831430        1.73450374013008
C            6.25829613504693       -2.27547999748313       -0.82262584191272
C            5.50877073036517        0.09055089514941       -0.68864042992621
C            5.87218681991829       -1.23434307637359        1.41149389781512
H            5.89671445302263       -2.39411154866811       -1.84143602244248
H            7.27554646345482       -1.89332695902451       -0.86660396941408
H            6.29230098688825       -3.24860356903337       -0.33918509174252
H            5.77980876462466       -2.20976489568306        1.88428772035313
H            6.91726457519227       -0.93513617740054        1.43965970101558
H            5.29284706060941       -0.51897541901912        1.98874082464708
H            5.08562102395723        0.08040077502089       -1.69079155851370
H            4.99413038758902        0.84834776182024       -0.10600660294668
H            6.55834881268067        0.36895229075455       -0.75680481447799
