69
 energy: -105.695600192665 gnorm: 0.000949896105 xtb: 6.5.1 (b24c23e)
Si          -0.41757087270636        1.15495974397858        1.21725932223894
O            0.67773790703969        2.03641075259124        0.41941140639164
C            0.93456182495052        2.23590868077707       -0.95074282156350
C            2.38403282353447        1.92829174689837       -1.22715104953474
H            0.29163374472446        1.57900352927395       -1.54293731330206
C            3.35367979564200        2.25509668877316       -0.28785201270457
C            2.76622459727610        1.33308146927668       -2.42180679259147
C            4.68846482122471        1.99430599302057       -0.54344522162375
H            3.04756176021781        2.70066295118982        0.64651521577108
C            4.10199381422636        1.07686509766969       -2.67834030539735
H            2.01395032012180        1.07105759697529       -3.15261116185956
C            5.06593649354088        1.40869835286193       -1.74073617644197
H            5.43693922142218        2.25292300739492        0.19139918520873
H            4.39136681153315        0.61609870537642       -3.61199148515198
H            6.10779201355385        1.20638333586261       -1.94099825102113
C            0.61700654572007        3.70208212787201       -1.30385799335731
C           -0.79726721588687        3.96161287654978       -1.14246972554749
H            0.92149125984243        3.89736509091782       -2.33555914485194
H            1.18439240804358        4.35212807919862       -0.63305812653669
C           -1.97203604670523        4.12322204592594       -0.98388506938725
H           -2.99524483239764        4.28762484517597       -0.82360436520019
Cl           0.33426401084135        1.84873029532886        3.06480479692729
Cl          -2.35936845560149        1.72234425852364        1.64660974926642
O           -1.01933995881860        0.39752773830717       -0.40034862191454
O            0.02505007177599       -0.44276537870504        1.67145826598295
C           -1.45260406363763       -1.89599197197008       -0.26276067221956
C           -0.08710993690602       -2.14842458056071        0.01357767813061
C            1.99324310851144       -1.34797670231122        0.89074290331482
C           -3.20355557226648       -0.30895498303954       -0.53249371512256
C           -4.17581901906486       -1.27363145963727       -0.64398235635827
C           -2.41287513387324       -2.90929277379176       -0.46133760825991
C           -3.73553541985174       -2.61749509928723       -0.63682384287395
C            0.62685915638370       -3.24042972152325       -0.52350273453372
C            1.97830442975330       -3.34477600907905       -0.39091346530777
C            2.71874027639333       -2.34244314095735        0.30295765372410
H           -2.08184873471863       -3.93421964702723       -0.41315605781155
H           -4.43912058585277       -3.42353970546102       -0.75422028764033
H            0.07623611006395       -3.96732261965562       -1.09907446677384
H            2.49256342637108       -4.17970194183875       -0.83660768467995
C            4.22959272155070       -2.41878390656763        0.37416952058900
H            2.41779681634626       -0.56243902945242        1.49307944874816
N           -1.91131615813652       -0.60296448936480       -0.37244750379621
N            0.65150923658930       -1.29064107727577        0.80400922981840
H           -3.40903086477718        0.74775364558872       -0.56933976714181
C           -5.62852110741156       -0.85277886698033       -0.75000397380429
C           -5.81243413205992        0.04301185707421       -1.98293314301519
C           -6.56833461223133       -2.05408126374990       -0.87822477894413
C           -5.99853808410764       -0.07366902174874        0.52052957761999
H           -5.51404427503740       -0.48683117832062       -2.88529621214152
H           -6.85733396688210        0.32742229108730       -2.08108721300353
H           -5.22017431439684        0.94953664892747       -1.90445504138452
H           -7.59593132539527       -1.70317174258168       -0.93586453517079
H           -6.35732810920041       -2.62426277833016       -1.78020540918252
H           -6.48719397599731       -2.70781708844736       -0.01316772229306
H           -5.35555130441743        0.79040624389014        0.65903445241477
H           -7.02984082882906        0.26571530276112        0.46181619234227
H           -5.89499121608381       -0.71106356990746        1.39545893031602
C            4.79136285313316       -2.35714504059800       -1.05320314248704
C            4.82645460584933       -1.26473119272312        1.18146065703036
C            4.63350605136906       -3.74189923147203        1.04044442426244
H            4.49778470021300       -1.42426326613563       -1.52955713757827
H            5.87725445278242       -2.40471540002986       -1.02670447274459
H            4.42879143956833       -3.18353102445129       -1.65854720714979
H            4.29490182344530       -4.59918461002757        0.46553708364478
H            5.71588262484143       -3.79745416070648        1.12596458130792
H            4.20532247779027       -3.80664232292761        2.03811399741156
H            4.57388365005005       -0.30665599191942        0.73437959424069
H            4.47624513124763       -1.28447691719081        2.21034001339582
H            5.91018478576698       -1.35564309329301        1.19363990930522
