57
 energy: -93.036589502971 gnorm: 0.000880552247 xtb: 6.5.1 (b24c23e)
Si           0.01685805695425        1.64159792330199        0.89167691229553
O            1.42096113595562        1.88683292840450        0.12035960668518
C            1.79484969819909        1.61898770051085       -1.21549391722688
C            2.30325336540215        0.20504627615411       -1.32430684332905
H            0.92529583037826        1.74911748196388       -1.86571306840151
C            3.33042250438138       -0.22492330805681       -0.49357499639710
C            1.74978162296587       -0.68610840645848       -2.23241245546425
C            3.81562929314124       -1.51597240670928       -0.59080338852556
H            3.74290576545904        0.45828139597586        0.23346259528045
C            2.22669880810776       -1.98225318139545       -2.32052791165225
H            0.94156953980251       -0.36078441962695       -2.87089005814792
C            3.26563941082168       -2.39748416359279       -1.50601518477453
H            4.62903918028760       -1.83211263769812        0.04532530162844
H            1.79071474373410       -2.66717862065864       -3.03361116151371
H            3.64643468418423       -3.40549146998271       -1.58606683041968
C            2.87941612675472        2.63542893883451       -1.61284742865505
C            2.31148128135412        3.96139505093109       -1.72964898402065
H            3.32062480217197        2.33298967486338       -2.56675573021737
H            3.65525011009801        2.64318341026783       -0.84456850115782
C            1.79986475774689        5.03896735393872       -1.81870572378829
H            1.37059738212961        5.99325419020890       -1.88758033115869
Cl           0.84265494070979        2.48035477915785        2.64712290301594
Cl          -1.60435743799001        2.91787239378735        0.82748742222040
O           -0.62777016281392        0.73982318892102       -0.63456366274822
O           -0.34519887585467        0.20162425082073        1.76841005015210
C           -1.94447618538788       -1.10656420837379       -0.06673849960482
C           -0.75502332551136       -1.73016840788263        0.43500616336705
C            1.19725692208219       -1.50557925138010        1.81558178163098
C           -2.88466550807361        0.84209827004867       -1.07758165370959
C           -4.14120301855332        0.29801553058184       -1.10123604106868
C           -3.23436343822699       -1.68110777493160       -0.02592413487861
C           -4.30296517589396       -0.98704511287796       -0.54157142094286
C           -0.29995284251200       -3.01215248093396        0.05951109756395
C            0.85135218677539       -3.52130458955571        0.60933582758089
C            1.62304510042547       -2.76786056407088        1.52990638378022
H           -5.29281656740427       -1.41300023518671       -0.48050720957647
H            1.20605186236182       -4.49168744433988        0.29946195247583
H            1.72198121404689       -0.82586685737627        2.46800619442572
N           -1.83814118199625        0.16461577631274       -0.59041226053601
N            0.04445446257398       -1.02319065121655        1.31645586868019
H           -2.66386015759012        1.83448999136249       -1.43487132940135
C           -3.48085457771676       -2.98181202570657        0.67750737832313
H           -3.69233946423422       -3.77599843049134       -0.03641021575911
H           -2.62932648938728       -3.27099015676633        1.28552435041302
H           -4.35171525028215       -2.88079427995668        1.32230092518365
C           -0.99053321302027       -3.78977551107275       -1.02081500825052
H           -0.24553468147861       -4.16572480647400       -1.71909779811790
H           -1.51473211597952       -4.64899432720630       -0.60644266496732
H           -1.69823408773218       -3.17272444317473       -1.56523661727524
C           -5.30883683212612        1.05803769981957       -1.63951449491332
H           -5.91189652612469        1.44380107776352       -0.81697360545741
H           -4.97748478506917        1.89964963390180       -2.24153387184882
H           -5.94177682831431        0.41077162615826       -2.24453273438031
C            2.85740495115284       -3.34253382029179        2.14335915330122
H            3.47120662219088       -3.82426295321206        1.38542218532895
H            3.43889105602578       -2.57025554973503        2.63777698776714
H            2.58760731089882       -4.09775404759801        2.88214069718677
