57
 energy: -93.032245085052 gnorm: 0.000451575760 xtb: 6.5.1 (b24c23e)
Si           0.38716419559610       -1.15125667856504        0.80043735264783
O            1.98680661140237       -1.44491949243561        0.50338137001862
C            2.65064900861453       -1.39492186827473       -0.73509279645256
C            3.17092799081986        0.00058197893485       -0.97195777034691
H            1.95694311700915       -1.67095627142873       -1.54021073299788
C            3.78296420070990        0.68564350083300        0.07115795260923
C            3.03681348777907        0.62200668088434       -2.20508193334910
C            4.25424889106516        1.97328682501865       -0.11797709750744
H            3.86326824343154        0.20661930182814        1.03586318960744
C            3.50761180127180        1.91022532142383       -2.39351075680826
H            2.55516515775120        0.09623919026980       -3.01704088298695
C            4.11710513138610        2.58859509385873       -1.35162695080826
H            4.72832626955181        2.49766985304954        0.69981231564779
H            3.39537910044729        2.38797349712134       -3.35609566172365
H            4.48228959955365        3.59454035693749       -1.49993120941392
C            3.81609931293694       -2.40225008551443       -0.70835659391613
C            3.31424152350405       -3.75868756545104       -0.68079869654206
H            4.43865816013517       -2.25256046221772       -1.59509988604612
H            4.41386014122125       -2.21560250872896        0.18670973071988
C            2.84973170840205       -4.86089726062673       -0.66364141676598
H            2.45337051386484       -5.83140372152713       -0.64255898136722
Cl           0.81588237544524       -0.93584676747316        2.79595854751376
Cl          -0.34035907182458       -2.74384707388069       -0.34876825344840
O            0.25239532515657        0.20812691036829       -0.27519182680100
O           -1.32438363706607       -0.76672898688866        1.39072359834464
C           -1.62587828556995        1.61321355694472        0.12256713244155
C           -2.49746954804952        0.51618467691957       -0.18813177015413
C           -3.11193305648153       -1.73557851964276        0.31388090529817
C            0.62942140188418        2.32206885105392        0.55110305254920
C            0.23832229830325        3.58376111997563        0.88331121912173
C           -2.06585126212689        2.90159773854989        0.49503413246802
C           -1.15091004612115        3.86529215672984        0.84859252409694
C           -3.51528087867355        0.55030874657979       -1.16709794338733
C           -4.32427300750676       -0.54651593971832       -1.34554353415671
C           -4.15157858619716       -1.71713499965269       -0.57657759325624
H           -1.49588409528554        4.83737141633457        1.16485667801091
H           -5.08160135504026       -0.52968934276045       -2.11455393083728
H           -2.85902732395869       -2.59607397633782        0.91091804658442
N           -0.25873676188911        1.39660073929905        0.14414989769082
N           -2.32864162432213       -0.66673758513510        0.50003876413447
H            1.65490702119257        1.98877685651854        0.56788156504278
C           -3.52645081732181        3.21305482030162        0.63155212362113
H           -3.86287191740738        3.84906217186471       -0.18539515687487
H           -4.12734267938725        2.30951200655917        0.64577965909587
H           -3.69212892573061        3.75626253073885        1.55960303757392
C           -3.65176451296817        1.71705776933453       -2.09934616925668
H           -3.71106871263872        1.35128085526799       -3.12286506506785
H           -4.56594672827616        2.27221864206691       -1.89692816224071
H           -2.80353876482546        2.38966808401072       -2.01946067116652
C            1.22325196958573        4.62014344461137        1.31453833468597
H            1.05054328357800        4.89487304113376        2.35454640605416
H            2.23828059480246        4.24710373969372        1.21548554884187
H            1.11557375583108        5.51955125638891        0.71007693652684
C           -5.02923254764592       -2.90856102761438       -0.77881201913716
H           -4.78509245818863       -3.39428967312493       -1.72341350975469
H           -4.89059974811742       -3.62956233457424        0.02130004905074
H           -6.07584383961431       -2.61131558983239       -0.81544909742692
