57
 energy: -93.034093459255 gnorm: 0.000633318348 xtb: 6.5.1 (b24c23e)
Si           0.38752916033373       -1.69451262642341       -0.33924637835110
O            1.74845891582087       -0.85268984347937       -0.61751345725131
C            2.88597365391756       -0.31852804697912        0.02021034219882
C            2.48856807121177        0.83286782616398        0.91413940955517
H            3.49227805046152        0.07162317611155       -0.81218987565405
C            1.59648961547982        0.64460877969815        1.96208298443340
C            2.98861059142827        2.10578597545316        0.67236380908792
C            1.19157276332852        1.71901932493952        2.73391244839560
H            1.20809840195229       -0.34026042457351        2.16683225351556
C            2.59362648581888        3.17716034747015        1.45344734320455
H            3.69516588757214        2.25599502621672       -0.13160848880702
C            1.68619417835621        2.98729062319461        2.48117571409497
H            0.49028321197910        1.56268495358052        3.54028671751974
H            2.99346438579233        4.16208700979186        1.25858612617511
H            1.37358754629968        3.82421954410664        3.08947353683856
C            3.73699901872046       -1.35193848910456        0.77695487148699
C            4.15909873416603       -2.40781376607449       -0.11748836239212
H            4.60977304803566       -0.83504762364256        1.18645450641952
H            3.16038585177192       -1.78692817484033        1.59368920640354
C            4.47611333049461       -3.25574560117784       -0.89946652944406
H            4.76086740558788       -4.02234419207865       -1.55580339499625
Cl          -0.12972213397603       -3.24092720802767       -1.57013731115276
Cl           1.02657567132237       -2.96224995422076        1.27323939070491
O           -0.72685286541791       -1.03562800821394        0.79972018993652
O           -0.44776283625765       -0.63934008550592       -1.62647797607860
C           -2.28445887830899        0.54678360457795       -0.05442939066407
C           -1.19501242701458        1.31893059968752       -0.57576497652152
C            0.69348359450938        1.31632353945905       -2.03136428852838
C           -2.95955770574390       -1.59194097194306        0.80748522237096
C           -4.28325295164540       -1.28449325562579        0.70802959763800
C           -3.64681692930142        0.89606737922869       -0.17167319053161
C           -4.61760516770978        0.00421302112397        0.21978815689728
C           -0.93416972619616        2.67360792157537       -0.27679675152636
C            0.09665442916330        3.32293720694861       -0.91145686157201
C            0.91865373134916        2.65358242128129       -1.84325365738522
H           -5.65796364208379        0.26161457110545        0.09594780060595
H            0.31100750626851        4.35094049972254       -0.66347344895605
H            1.30251998360988        0.69022623210332       -2.66306870996367
N           -2.00801501748592       -0.69357240401902        0.49138798668533
N           -0.31826122707606        0.68198299449813       -1.43004746675148
H           -2.58771182443235       -2.54250118269549        1.15576968431285
C           -4.06631841699881        2.17846731609880       -0.82529833798671
H           -4.36940547964675        2.90929901358377       -0.07755371699929
H           -3.26429739435527        2.60030548847653       -1.42259909838231
H           -4.92258307934308        1.99309500516661       -1.46994757992038
C           -1.68463712877456        3.37778390744145        0.81287644726450
H           -0.96857718744145        3.84255919605061        1.48818774322602
H           -2.31710673240904        4.16556795908379        0.40765508640432
H           -2.29753480837171        2.68495633510671        1.38059632079740
C           -5.34986672701182       -2.27088323193292        1.05398140544385
H           -5.89563548270226       -2.56308207374647        0.15730181472081
H           -4.92125386303811       -3.16150490700162        1.50348372970886
H           -6.06321378515912       -1.83044950997737        1.74859803462413
C            2.01149179503515        3.37533157461393       -2.56246304222173
H            2.58777116206723        3.98184788164480       -1.86673659336666
H            2.67604527183936        2.67514222157329       -3.06031642359631
H            1.58920396420872        4.04322010440546       -3.31373957167147
