57
 energy: -93.036445125846 gnorm: 0.000962550112 xtb: 6.5.1 (b24c23e)
Si           0.29022739067730       -1.45221298239108        0.31212641283976
O           -1.06134334426487       -1.27265305027827       -0.55663364168140
C           -2.35507490198024       -1.80245725903108       -0.42707665576930
C           -3.35564909166855       -0.68290478093861       -0.56940195924739
H           -2.45883685016489       -2.28152020630745        0.55484777923574
C           -3.07363566388917        0.40273982148706       -1.38791968983620
C           -4.57286593132874       -0.73502478587766        0.09660751854515
C           -3.99843074600692        1.41971326550195       -1.54265724101385
H           -2.12038581713583        0.44202168445473       -1.89236301328450
C           -5.49799775732923        0.28187914844874       -0.06093874050024
H           -4.79200067424146       -1.57415959949659        0.74109680457443
C           -5.21412802027575        1.35979251129224       -0.88256730424727
H           -3.77146637392670        2.25832226024571       -2.18557475902025
H           -6.44328784701230        0.23378724889588        0.45967837201434
H           -5.93939284301639        2.15118055639271       -1.00599774620647
C           -2.58064910474210       -2.86179141159974       -1.52438824899047
C           -1.69813228580271       -3.99036279282143       -1.32039078929081
H           -3.62271807000693       -3.19049460836221       -1.49497801386819
H           -2.37511335464302       -2.40551682875635       -2.49630708051876
C           -0.93980281350679       -4.89194615053527       -1.11335682604785
H           -0.27909168432566       -5.68713240032232       -0.93794123608942
Cl          -0.56846513955347       -2.48069727069691        2.02003327663302
Cl           1.73565321326444       -2.90554168884122        0.08100833420849
O            1.03526500088330       -0.46977049697362       -1.04929231446655
O            0.64806526716114       -0.12956979922984        1.36967643687069
C            2.29581046455893        1.32562964523606       -0.23114569498226
C            1.05488767749124        1.89510579795246        0.20943807338940
C           -1.03503981821403        1.44922333297983        1.30299394000958
C            3.33245717623657       -0.55963436646350       -1.26940226111576
C            4.58195040929662       -0.01464316958727       -1.14414077223434
C            3.57118281243844        1.89740185150344       -0.03986866093519
C            4.68603453582642        1.23818790982888       -0.50090764186919
C            0.56673580696658        3.17009458523895       -0.14234521467559
C           -0.68968497681195        3.55631735753601        0.26276442901784
C           -1.52637691653369        2.68529134560748        1.00483725818229
H            5.66407913116220        1.66130945999979       -0.32989743968882
H           -1.07313966024242        4.51966985029469       -0.03544522515787
H           -1.59302533401486        0.69551451100527        1.83490346821692
N            2.24058792472213        0.08995839329302       -0.84591563799089
N            0.21531574542667        1.09456687711915        0.96106080383502
H            3.14786421686485       -1.52835210520429       -1.70373074839556
C            3.74028018038535        3.15389479373596        0.76008451938742
H            4.00190335824082        3.99203440407838        0.11663643991406
H            2.83521688604224        3.39656728653062        1.30804967385419
H            4.55320972913896        3.02043178098321        1.47102850555552
C            1.34842692148850        4.07213958511932       -1.04965855758530
H            0.67691626378161        4.52680419751614       -1.77466784464728
H            1.81470050019963        4.87708750080605       -0.48424876715737
H            2.11964921606271        3.52434265598779       -1.58219023931940
C            5.79914347937315       -0.73101178507149       -1.63016259683167
H            5.53289137603623       -1.69101906234781       -2.06144766995661
H            6.31524729331446       -0.13532571176587       -2.38242324598516
H            6.49147028070151       -0.89793922340404       -0.80645259288502
C           -2.90275362820633        3.10254688034053        1.40497595802974
H           -3.51188590587044        3.28683295887160        0.52178019814720
H           -3.38316585144758        2.32937273941584        1.99602240256900
H           -2.86552785157788        4.02310633860349        1.98543546646317
