57
 energy: -93.035316045808 gnorm: 0.000986809914 xtb: 6.5.1 (b24c23e)
Si           0.81338685053576        0.18817470860624       -1.16410231294078
O            1.68095084801487        0.74141076993532        0.08648207195917
C            3.06642053209077        0.99845962755040        0.13225582828105
C            3.85517020098054       -0.26527078530380       -0.09304482155814
H            3.31791635471470        1.72572695989733       -0.65006626754861
C            3.43970177746080       -1.44999931015729        0.49998163219056
C            4.98040480412270       -0.26535967282636       -0.90428250236056
C            4.13912475991475       -2.62254792983418        0.28106774127926
H            2.54911063350626       -1.44814241810255        1.11091507994299
C            5.68328602220424       -1.43818310578958       -1.11750242258228
H            5.29353953886758        0.65107400257867       -1.38214103768176
C            5.26406757670391       -2.61781764803319       -0.52626905838718
H            3.80262347306650       -3.54296779085301        0.73557685069662
H            6.55383808121333       -1.43270616275769       -1.75660249310443
H            5.80802037008264       -3.53439948255306       -0.70199508774182
C            3.38060464092220        1.59372874158170        1.51521536980346
C            2.72167299715752        2.86829086073229        1.69692013717539
H            4.46278549224613        1.71910056497100        1.60815490903432
H            3.03455550773385        0.89516766765304        2.28088971458203
C            2.15754077682893        3.91642989870772        1.81982397538340
H            1.67960116687622        4.84042815327624        1.94991648428056
Cl           2.08031614117343        0.94260732461831       -2.75867172455082
Cl           0.90508303630524       -1.73862641475896       -1.93221589995296
O           -0.36642797879923       -0.35469864602600        0.12597302066820
O           -0.41322741770589        1.22895770481609       -1.77377928051101
C           -2.57549782063359        0.09877197800911       -0.52520502982717
C           -2.27934520530431        1.48774753164315       -0.33156585562286
C           -0.65933931054399        3.22915155340023       -0.65559361608388
C           -1.73538770867157       -2.13300327812981       -0.40109372415390
C           -2.93391417405343       -2.67061657831229       -0.78530443008577
C           -3.80680386908274       -0.41445075128967       -0.98847635262057
C           -3.97657142060999       -1.77332717854136       -1.10409185323974
C           -3.02575101491518        2.37146859256449        0.47707937649198
C           -2.58837560166260        3.66157076477819        0.66263913471248
C           -1.37334263317095        4.11752507105418        0.09240676016961
H           -4.90781720229713       -2.16305015490770       -1.48584807201191
H           -3.14672235223180        4.32579949152699        1.30401475316936
H            0.29077399195900        3.45474287424030       -1.11237392913403
N           -1.56775682071335       -0.81054633781128       -0.27208066668624
N           -1.12333027663282        1.99108029220339       -0.89695725282880
H           -0.86188283489874       -2.72636306847186       -0.18874527555112
C           -4.89074057864566        0.50145606185596       -1.47286221646398
H           -5.74049556776404        0.49395815707867       -0.79262690877318
H           -4.52956305277923        1.51941026346265       -1.57931801009601
H           -5.24429824568991        0.15481850497332       -2.44204585550162
C           -4.22928856415513        1.89893244859591        1.23635884861438
H           -4.19449232255629        2.29476136493070        2.24923313755004
H           -5.14517045098674        2.26204193170031        0.77328540172589
H           -4.26558486014094        0.81528891934873        1.28640205528261
C           -3.12465004303513       -4.14699506941489       -0.90718603555479
H           -3.46728566311923       -4.40154398637701       -1.90874511807494
H           -2.19388609883249       -4.67101567359941       -0.71302677618438
H           -3.87858409711678       -4.49196358397118       -0.19992244232758
C           -0.89781889928872        5.51450438308744        0.32421820344003
H           -0.92535940989600        5.75448800672495        1.38645607181171
H            0.11421798742566        5.64247289374614       -0.04972542619117
H           -1.54922506617200        6.22198595796550       -0.19066480230433
