57
 energy: -93.035310235281 gnorm: 0.000567599595 xtb: 6.5.1 (b24c23e)
Si          -0.67845645278374       -0.26507779059687        0.61437488974276
O           -1.41248357498217        0.74020000246663       -0.42260191479369
C           -2.72924282938430        1.23851794451363       -0.35811355616989
C           -3.73469307174628        0.12181809715471       -0.46818680287253
H           -2.86643717576821        1.75560963640269        0.60009477687481
C           -3.51436213985826       -0.91814643809918       -1.36085905152558
C           -4.87405876118932        0.11329224641207        0.32298828954721
C           -4.42111082593970       -1.95749189602501       -1.45832739525539
H           -2.61435771625783       -0.91686158464367       -1.95769086627473
C           -5.78401842628057       -0.92388449834577        0.21973129072703
H           -5.03710911732350        0.91189028289139        1.03167704427847
C           -5.55925318512854       -1.96039092291573       -0.67010320453043
H           -4.23771579129849       -2.76860069726019       -2.14777576845630
H           -6.66519122991185       -0.92828868217427        0.84433846204108
H           -6.26622751323815       -2.77388146240040       -0.74303984527906
C           -2.90525244332718        2.23514968439494       -1.51659195529517
C           -2.05686405687040        3.39355446190336       -1.34619266101487
H           -3.95191315382581        2.54811889409911       -1.55598031739030
H           -2.64794922855845        1.73016061802412       -2.45060457066059
C           -1.34392574099919        4.34015918318842       -1.18121292401261
H           -0.73507471342780        5.18381276774251       -1.05281206730126
Cl          -1.15546684684701       -2.26484430553987        0.90496235460288
Cl          -1.77844872484869        0.30327268556599        2.39997897802371
O            0.37194577265882       -0.69656999637816       -0.81741316928327
O            0.72881205739606        0.34763844997707        1.39675442460527
C            2.63621755466909       -0.77997239133789       -0.21227353457180
C            2.57895014345605        0.64432706683034       -0.05954356333318
C            1.32525852429918        2.49534638054951        0.81236616081630
C            1.41020358140432       -2.75692675145340       -0.75287971589137
C            2.50253161484730       -3.55884086572402       -0.56187104375718
C            3.77223264761234       -1.57906014373339        0.04141902509526
C            3.69939305057267       -2.93956915756235       -0.13908101833645
C            3.44278095737796        1.56394548062636       -0.69136308308512
C            3.24955825559248        2.91369187744815       -0.51719437292785
C            2.16917371807060        3.40948773402579        0.25488730336289
H            4.55752355488897       -3.55371228251855        0.08730960269885
H            3.89555981309419        3.61406209664753       -1.02361147441837
H            0.45132943911214        2.75631405253471        1.38718241704272
N            1.47852117739864       -1.42878276870909       -0.59246023381904
N            1.55224649313259        1.17573528162982        0.69724398172871
H            0.44015798394388       -3.13491602888155       -1.02951159600311
C            5.02106178819794       -0.98389623979486        0.61953716005692
H            5.81603162399391       -0.95115340848902       -0.12337069990629
H            4.84380203296818        0.02006471311235        0.99231241250966
H            5.36743314760659       -1.60578042909440        1.44256719901532
C            4.50087489465001        1.10069300970259       -1.64754262512334
H            4.47806317444076        1.72508682520815       -2.53835866142739
H            5.49082230841244        1.19639812713251       -1.20507978178913
H            4.34372188148026        0.06809483318194       -1.94232447905304
C            2.42790852210672       -5.03900629282518       -0.74695909355044
H            2.72055697299754       -5.54710534184839        0.17055944043150
H            1.41854787072907       -5.34287558005249       -1.00633887395034
H            3.10805188482076       -5.35894536973958       -1.53581840087917
C            1.96361438943342        4.87946382649889        0.42235299859185
H            1.04437527142527        5.07927862015468        0.96500268958218
H            2.79628347170622        5.31341235799312        0.97598164307068
H            1.92358014529986        5.36967108813115       -0.54930222250682
