57
 energy: -93.038428944223 gnorm: 0.000704782171 xtb: 6.5.1 (b24c23e)
Si          -0.60742939460718       -0.97109486192665        0.42427883716549
O           -1.50738782634470        0.32343566355154        0.01410366972895
C           -2.62209762299897        0.43698256216127       -0.83262838202549
C           -3.89403803617130        0.01846026229947       -0.13964422441481
H           -2.46920405157135       -0.19181074163088       -1.71735928587891
C           -4.01282856870592        0.10723524972353        1.23920075547987
C           -4.96946228040352       -0.44285768123245       -0.88690632438381
C           -5.18862621518273       -0.26634081604710        1.86544305253588
H           -3.17151880006149        0.44904381469799        1.82297605799699
C           -6.14705016597351       -0.80847850905000       -0.26136249204065
H           -4.87528528100884       -0.52751134190034       -1.95983594231349
C           -6.25922996627676       -0.72085447411169        1.11622511118317
H           -5.26629507241807       -0.20432578187601        2.94087248108661
H           -6.97695222404444       -1.17139562420856       -0.84965685193601
H           -7.17703939251200       -1.01376794749151        1.60455988771292
C           -2.71779157588936        1.91245207936423       -1.27115945536055
C           -1.53381030298926        2.30109516398182       -2.00517684508283
H           -3.60351200807624        2.03805925535295       -1.89841481516243
H           -2.82185845982237        2.53989761285763       -0.38193119447155
C           -0.52928497246266        2.57506589120625       -2.59477396792965
H            0.33686857893311        2.82803458567837       -3.12877302199315
Cl          -0.84048475038838       -2.11361446457178        2.11381640489390
Cl          -1.56559030383676       -2.39289964899614       -0.87700306737123
O            0.80556077255756       -1.14099008895301       -0.54129500916262
O            0.34801025186934        0.13661129902409        1.53399625646442
C            2.75089242860788       -0.11063685016171        0.36175630472333
C            2.07470617523198        1.15377374763638        0.32222499520427
C            0.14280016323705        2.37174753588977        1.01111880089473
C            2.51122951199377       -2.49569261568439        0.20554532848574
C            3.78490200519488       -2.71514593063130        0.63754031732982
C            4.06737137008309       -0.30439342794482        0.83154153769194
C            4.57392753338535       -1.57770329432261        0.94424366284944
C            2.54118009790251        2.31165105168601       -0.33797242904585
C            1.81107727496966        3.47362792232319       -0.26751813831127
C            0.59009325687130        3.53101064915365        0.43909082643089
H            5.56919990264625       -1.72268765934264        1.33467942305790
H            2.15203232218886        4.35094871439832       -0.79592844671532
H           -0.79716149650859        2.28684136838416        1.53047514074446
N            2.03854402313973       -1.24843326110547        0.02520418204997
N            0.85622868304751        1.24244131717897        0.96006151049172
H            1.81421723847407       -3.28275935165794       -0.03447501650867
C            4.89068205447932        0.84637248482144        1.32814837539204
H            5.65539223241395        1.11549866697375        0.60167495390262
H            4.27456383980748        1.71681230425520        1.53011821992197
H            5.39769050247561        0.55690819242581        2.24604297752914
C            3.75732267249194        2.26099443354409       -1.21391840520957
H            3.53082673206484        2.72563759667896       -2.17167927381429
H            4.58125461420086        2.81653138377787       -0.76950753157882
H            4.07359632788048        1.23782163589116       -1.39088360277512
C            4.32818735425714       -4.09338686050583        0.82575373054974
H            4.60236773595268       -4.25094158301461        1.86809363243204
H            3.59282135070791       -4.84005604227897        0.54191353120100
H            5.22408616587660       -4.23186302537203        0.22169959980329
C           -0.20862359790112        4.79210898560587        0.49028656864276
H           -0.61761211715585        5.00833054005023       -0.49624430974255
H           -1.03158556721641        4.70162587097706        1.19268192766822
H            0.41793487758576        5.63119004247747        0.78629697196992
