57
 energy: -93.036652309550 gnorm: 0.000661174210 xtb: 6.5.1 (b24c23e)
Si           0.24009112936411       -1.50760496084898        0.29350284353286
O           -1.26855882456625       -0.96524348697184        0.58065865085446
C           -2.52549542651982       -1.55249570946361        0.36894436771500
C           -3.34823614407974       -0.73681753190283       -0.59591368943499
H           -2.39103139014514       -2.56446912923589       -0.02998022659326
C           -3.12084587727553        0.62236417674920       -0.75457639057013
C           -4.37484995664397       -1.34023629719018       -1.31132745485044
C           -3.90602697445252        1.36886671889177       -1.61515247701720
H           -2.31584263456386        1.08886920629035       -0.20834820800801
C           -5.16346400119448       -0.59254261307708       -2.16648261078607
H           -4.54750783429852       -2.40103308107754       -1.20222002433865
C           -4.93235503871425        0.76459261227812       -2.31956444085779
H           -3.71523880849514        2.42613735092191       -1.73470460670573
H           -5.95808455832880       -1.07060636373458       -2.72029469705515
H           -5.54711452053476        1.34701352023701       -2.99013064309307
C           -3.25370960355974       -1.63915447367819        1.72801268049406
C           -2.44396359864812       -2.37351560520451        2.67636836679671
H           -4.21548378391707       -2.13691380490147        1.58569891065090
H           -3.43248515219443       -0.62566140027907        2.09971949279358
C           -1.70957755566088       -2.96348067030741        3.41398767466746
H           -1.07856725582090       -3.49427621776679        4.06184041471660
Cl           1.35383744749932       -2.77641500056089        1.45672601157111
Cl          -0.28765206224097       -3.01622439031410       -1.14405470039146
O            0.96670471857369       -0.63382540344405       -0.99746039988548
O            0.87001583549719       -0.21944865111657        1.44510494009559
C            2.21174187585728        1.28111855114291       -0.32982899980232
C            1.03438257335162        1.81286872600597        0.29366399210799
C           -0.67486107519153        1.42055719884258        1.91414493757293
C            3.25275218907054       -0.67381122638569       -1.25858155564212
C            4.47949110423774       -0.08132644941177       -1.29335937727898
C            3.46951178521601        1.92105766755658       -0.34482288792742
C            4.56931603356443        1.25694502475408       -0.83476596524288
C            0.45023892697016        3.06765712624698        0.01322274724652
C           -0.65320901337418        3.47680031865602        0.72336089091274
C           -1.22775540874223        2.65858623068799        1.72227459528874
H            5.53518134600496        1.73702316636689       -0.81162161049889
H           -1.11873710044508        4.42160039835992        0.48743110518000
H           -1.06503107892843        0.68871467911550        2.60308906861855
N            2.16188404379337       -0.00078131065543       -0.84794366194077
N            0.40450882264066        1.02265911151874        1.23283273196934
H            3.06740580379223       -1.69071650348851       -1.56584050125105
C            3.65952019690499        3.27330364244590        0.27449042618636
H            3.72144253162680        4.04270289360639       -0.49319632369193
H            2.84691753169088        3.51744885334457        0.95148058251855
H            4.59423259922709        3.28815349053483        0.83056938498553
C            0.93875728566549        3.90512691508439       -1.13028121386773
H            0.09056634504869        4.20286156029493       -1.74417893418208
H            1.41793420006445        4.81404579418654       -0.77079538386010
H            1.63893610911827        3.35491969079291       -1.75078753568055
C            5.69561126369800       -0.81215841280169       -1.75906268991009
H            6.44636293835658       -0.83573330776382       -0.97045330247939
H            5.44931670814116       -1.83213479499300       -2.03805704569550
H            6.13294721218031       -0.30702255742331       -2.61951001413667
C           -2.43832988250424        3.10267214751797        2.47773935563757
H           -2.64557912683818        2.42999326403695        3.30520513581888
H           -2.29723373063808        4.10963635658613        2.86665199690425
H           -3.30719313865598        3.11819796094303        1.81882426783855
