57
 energy: -93.038101677806 gnorm: 0.000751434779 xtb: 6.5.1 (b24c23e)
Si          -0.08279611697540       -1.73977616345784        0.15233867253017
O           -1.54360395815106       -1.03951398188330        0.30291393004590
C           -2.68285134340916       -0.98943860242258       -0.53058967478517
C           -2.75228527422103        0.42635907386057       -1.06105759098875
H           -2.53905177879384       -1.68303965879121       -1.36967084769806
C           -3.72825469939826        1.34344092887038       -0.69978659928610
C           -1.72397679834244        0.83744802167320       -1.90448256971643
C           -3.67651420012536        2.64433902806499       -1.17456343471043
H           -4.54115729144806        1.05569870485872       -0.05136404513729
C           -1.66640402507761        2.13764204670627       -2.36720996751271
H           -0.96517667139059        0.12437447443000       -2.19008661530423
C           -2.64418702068060        3.04807831460679       -2.00115810142803
H           -4.45082660131374        3.34547465618905       -0.89605113818402
H           -0.86232850614663        2.43838967733500       -3.02308304963709
H           -2.60607417318235        4.06473252023441       -2.36545474350547
C           -3.89957936932296       -1.44754341724737        0.28154544896456
C           -3.71500806251145       -2.82605899522454        0.68929672159886
H           -4.79809042221790       -1.36169025724794       -0.33466239026128
H           -4.00431603957008       -0.82405619778943        1.17375701146176
C           -3.50244957984340       -3.95567927834431        1.01980652548003
H           -3.32459720923891       -4.94812584713327        1.30747736277685
Cl          -0.55273480089750       -3.02682552080245       -1.50611713670196
Cl           0.62486052958339       -3.24018317013184        1.34579883016335
O            0.50223084565562       -0.62569569151366        1.49452249525175
O            0.98398895081333       -0.91353531480124       -0.92223237815368
C            1.07543159154074        1.43585193229044        0.53306178338758
C            2.28324388767868        0.81102495254404        0.07565059521097
C            3.26414756991892       -1.20456040875493       -0.79101716788944
C           -0.91111517931311        1.16113913897883        1.82506729873933
C           -1.29281425618052        2.46072836151037        1.63149610308446
C            0.67345346737958        2.75697908432654        0.23940458815495
C           -0.48435388808211        3.25305889060733        0.78842099905682
C            3.58352718606744        1.30933110846199        0.30482007175594
C            4.67746181360960        0.55023461739219       -0.03903709782152
C            4.53216471386480       -0.74999968127061       -0.58581537313689
H           -0.80738752317357        4.25192738411487        0.53904189749308
H            5.66926227336502        0.92014007267564        0.16946458145701
H            3.03115225839042       -2.17965520391461       -1.18832543196759
N            0.22180049962540        0.67649814715006        1.30568459378016
N            2.19427648265213       -0.43229442281340       -0.52499441049607
H           -1.48442283418456        0.44701388492979        2.39312934419267
C            1.42475536219472        3.58572298684184       -0.75838699728037
H            1.94975610566248        4.40476365213954       -0.27000910513400
H            2.14065908122731        2.98461371312345       -1.31040705537713
H            0.71769218442195        4.02255581421889       -1.46083064742590
C            3.80160909706436        2.60530658675395        1.02610886723526
H            4.62915531493559        2.49672691458641        1.72361187309256
H            4.06429355398650        3.39546920413724        0.32478227291411
H            2.91645024378274        2.90557883124216        1.57805561096640
C           -2.53231038424572        3.01704730889297        2.25204532352772
H           -3.14377870034479        3.50613288995430        1.49641036699603
H           -3.11435499262234        2.23118296737996        2.72423049684099
H           -2.27464153212806        3.75962105298277        3.00745419277087
C            5.72976469142874       -1.58886910776229       -0.88924038348697
H            6.34137795574275       -1.71040925652960        0.00353839930667
H            5.43269735689873       -2.57019128340144       -1.24647243478344
H            6.34382721504203       -1.10818148282692       -1.65008887042736
