57
 energy: -93.030763615487 gnorm: 0.000930200469 xtb: 6.5.1 (b24c23e)
Si          -0.48139621462782       -0.28971203704057        0.07226474672025
O           -2.01677151971843       -0.78784718657622        0.11046237975971
C           -3.14257340588155       -0.58287993303000       -0.70318522283458
C           -4.35796406793667       -0.36694905145787        0.16109016713468
H           -2.98191257116090        0.28866979750748       -1.34781110862035
C           -4.45068653987940       -0.97026730195645        1.40772928523825
C           -5.41032652362616        0.41351841028027       -0.29942044931466
C           -5.58012792991538       -0.78981218059177        2.18624137847419
H           -3.62476406330911       -1.56611703063631        1.76461919627123
C           -6.54177805723047        0.58698782107040        0.47735226646171
H           -5.33782226408725        0.88902371840326       -1.26747525731536
C           -6.62860548075665       -0.01400420928774        1.72201225300608
H           -5.64222121571580       -1.25782670285188        3.15781424096588
H           -7.35581162251994        1.19670028690693        0.11274102719958
H           -7.51089079548283        0.12567479576728        2.32959147290065
C           -3.34242994451393       -1.83382786654777       -1.58476551950686
C           -2.22194445664341       -2.00583186446393       -2.48255474620999
H           -4.26780781821340       -1.72297183519944       -2.15569694992449
H           -3.42625634463207       -2.70649254075090       -0.93131206522596
C           -1.26085604825581       -2.10762090899276       -3.18756167132734
H           -0.42985638106342       -2.19882335401140       -3.82031701145279
Cl          -0.79188783774853        1.18810201304678       -1.52499623992539
Cl          -0.14753580481749       -1.74328601346166        1.63045041219245
O            0.26404269786726        0.86161648697943        1.10984234781818
O            0.89713728593012       -0.77250399130912       -0.83781949445835
C            2.39722070103802        1.30854534222889        0.19616328635933
C            2.77712924366615       -0.06717821815970        0.40418037482706
C            2.29190452847977       -2.38709025777947        0.04104077472738
C            0.70566237982271        2.99979228754511        0.36350456201803
C            1.51926297973829        3.95904200984148       -0.16665688810817
C            3.25192522736459        2.26660672450916       -0.38593884544255
C            2.82049419507440        3.56339692355691       -0.55145053486993
C            3.90408533946181       -0.45250048774468        1.15705508289091
C            4.20783319611040       -1.78717583217928        1.30471118574624
C            3.39675673861279       -2.79273349096460        0.73241407540573
H            3.46565601373915        4.28016786165536       -1.03544542842397
H            5.04795621429121       -2.07572794639327        1.91718754609844
H            1.57316780914403       -3.06410121974199       -0.38950768555431
N            1.14228725030403        1.74748469853405        0.57118874339658
N            2.02636604317300       -1.08513865912361       -0.15037892990956
H           -0.31939176831462        3.17477707110198        0.64538498504866
C            4.58949834507991        1.87747996390476       -0.94175747560986
H            5.39203858618465        2.30298580057940       -0.34191428928247
H            4.71042867926664        0.79975907582973       -0.97944756117186
H            4.68722663985201        2.27450223940639       -1.95024318797729
C            4.71916247522679        0.55872630890411        1.90706878156359
H            4.84709355699435        0.22305499499154        2.93417241037903
H            5.71001680949487        0.65635539003488        1.46699035454874
H            4.23988310083526        1.53221784889369        1.91768536651767
C            1.05037967662322        5.36186041806269       -0.37138644856045
H            1.24282270180972        5.67769927647051       -1.39439890121773
H           -0.01351508867563        5.44472147391337       -0.17394779271682
H            1.58462291639164        6.03977269689193        0.29362218774350
C            3.71038672049729       -4.23799722000822        0.93663525947249
H            3.62180761312967       -4.48940488246652        1.99247002561543
H            3.02490082782619       -4.86461133781513        0.37480405954294
H            4.73085727171105       -4.45532117625576        0.62468946893392
