57
 energy: -93.036477412505 gnorm: 0.000791404775 xtb: 6.5.1 (b24c23e)
Si           0.20526501496275        1.38793996194630        0.43494943406666
O            1.37199822398699        0.80244994876216       -0.51837851558350
C            2.77273805823638        0.88074572990876       -0.47296334471497
C            3.34621627754675       -0.49793109323419       -0.68487201287456
H            3.08660686843877        1.27556464282139        0.50181564180716
C            2.66281724608795       -1.42711078216317       -1.45802740370659
C            4.56996202135650       -0.84466303232641       -0.12759742493556
C            3.19755514322575       -2.68442965556384       -1.67354387632355
H            1.70742505008963       -1.15384008396834       -1.87924316348244
C            5.10526038601892       -2.10152812921769       -0.34683124131109
H            5.10037466488942       -0.12657779430601        0.48107774548386
C            4.42118615537620       -3.02352506888526       -1.12139152830893
H            2.65944669746109       -3.39973431235474       -2.27933424503814
H            6.05802953793994       -2.36369485826834        0.08938482628398
H            4.84181751727052       -4.00398987148181       -1.29202754726233
C            3.26082553077374        1.83782701948339       -1.57906330901466
C            2.80613737738784        3.18502903993551       -1.30987673284476
H            4.35270281108102        1.81051898907363       -1.61990610678635
H            2.85673713713727        1.49812671496965       -2.53623573578453
C            2.39483770350544        4.27638155250461       -1.04320689831609
H            2.03658359410782        5.23551137445799       -0.81616799244230
Cl           1.45355107372021        2.00573631003699        2.10167300993129
Cl          -0.69407879025807        3.24062234870872        0.33563225081232
O           -0.89268867320911        0.76255453273966       -0.89634119852168
O           -0.51746154210341        0.21496352203597        1.48653132790354
C           -2.60589201353588       -0.59131742105833       -0.05474437940481
C           -1.58278739625093       -1.53409116165461        0.29640847068360
C            0.57704814416613       -1.80962541435453        1.30667147434578
C           -3.05286976111825        1.57973094005693       -0.94670548720652
C           -4.40177348353851        1.44248006546262       -0.75883591576260
C           -3.98564642881681       -0.75399642766050        0.19055099331144
C           -4.86020673237373        0.24439179402789       -0.16785447675765
C           -1.52681674497769       -2.87902462864927       -0.12222344053113
C           -0.44331722934687       -3.65604030791247        0.21569909872771
C            0.64537901768613       -3.12387817802184        0.95106944343828
H           -5.91219417147697        0.13326239099433        0.04623208013311
H           -0.38944396876537       -4.67564951878246       -0.13297060924808
H            1.36069335217268       -1.29076465199363        1.83499184628929
N           -2.19951858674824        0.59873341433947       -0.62569505122353
N           -0.50915464822371       -1.06749997338805        1.03180666728662
H           -2.59665310352049        2.46766659377397       -1.35259305946440
C           -4.50116963125998       -1.94678093162130        0.93819413308728
H           -5.02616066237968       -2.62663401339883        0.26921913156335
H           -3.69442340347391       -2.48423780157655        1.42680809085316
H           -5.21088895167797       -1.61845419782479        1.69491883047870
C           -2.57514346552519       -3.44713711998343       -1.03150391705789
H           -2.09591250436858       -4.02650858332154       -1.81790314954621
H           -3.23660025204036       -4.11811321657592       -0.48621049909231
H           -3.16862635844249       -2.66179979256668       -1.48893183456853
C           -5.35697007952456        2.53015904688907       -1.12687265582734
H           -4.82703128669555        3.38422291994265       -1.53654838323330
H           -6.07471547248015        2.17181645818149       -1.86360777390440
H           -5.91485526835121        2.85366072467779       -0.24963501943705
C            1.82716933675647       -3.97016022872736        1.29226048707247
H            2.60862144389816       -3.37246047028539        1.75168725810332
H            1.53605709283476       -4.76147509553342        1.98270063976701
H            2.22976513236162       -4.43802321904378        0.39611104806847
