57
 energy: -93.035327768999 gnorm: 0.000773785633 xtb: 6.5.1 (b24c23e)
Si           0.73518952830218        0.11014270106076        0.67164787583811
O            1.36072359323277       -0.87472208089197       -0.45199879884361
C            2.57177588518454       -1.59130120325885       -0.40154372688358
C            3.75769216751562       -0.66126120015445       -0.41967973817397
H            2.59489657753286       -2.18696378474813        0.52017634939235
C            3.70960285355656        0.51298594027511       -1.15769069964007
C            4.90475564005614       -0.97108974826342        0.29714306415340
C            4.79270678791953        1.37284378147398       -1.17120304379230
H            2.80821968836426        0.75542424206904       -1.70026321371630
C            5.99092211045780       -0.11474315208744        0.27525010163125
H            4.93875143865317       -1.87832290551303        0.88268046428300
C            5.93628529915961        1.05900952926286       -0.45721589992313
H            4.74317757293637        2.29127525208301       -1.73773947594556
H            6.87862457772803       -0.35946660067544        0.83987164385574
H            6.78161614545231        1.73144829430347       -0.46530706632095
C            2.60900565124989       -2.52359874838052       -1.62570330842612
C            1.61940198171974       -3.57218906499166       -1.51859637514942
H            3.60523171503533       -2.96717125027272       -1.70228119321346
H            2.41424537887408       -1.92607989764244       -2.51952195483759
C            0.79559697927283       -4.43154141582611       -1.39615211436212
H            0.09180638875807       -5.20341734074966       -1.30646953344271
Cl           1.53408798765661        1.93578847304844        1.25696114809618
Cl           1.56906499779713       -0.87229846978039        2.41622390700319
O           -0.10505055878687        0.91069338747497       -0.74717716400049
O           -0.81538383031694       -0.32758286941146        1.27502777450243
C           -2.34767563885270        1.37122438896524       -0.23696686581173
C           -2.57997051025370       -0.04230690549298       -0.28625511189643
C           -1.75468538225614       -2.20946019530313        0.33203751284025
C           -0.73366985368903        3.11410617648993       -0.47892756447658
C           -1.66339693255168        4.08996853092163       -0.24127622278901
C           -3.32129480370414        2.34506987761110        0.07538639989824
C           -2.97899893158846        3.67592742429283        0.06247644598010
C           -3.56174522596057       -0.67323264790655       -1.07981032578599
C           -3.63415909798885       -2.04544773287189       -1.11312567623056
C           -2.71421184049907       -2.84962037991770       -0.39457023742890
H           -3.71541712801772        4.41830911789215        0.32967538430206
H           -4.36658941092712       -2.52535197541739       -1.74358336998172
H           -0.98329640980659       -2.71691360489156        0.88861350251990
N           -1.06428718364877        1.81615948658475       -0.48276059608141
N           -1.72502799611906       -0.86833787882911        0.41801773719069
H            0.30645975011146        3.32167404199075       -0.66724660083142
C           -4.69058187204030        1.94591468115043        0.53799189509748
H           -5.44072760071899        2.18430483094802       -0.21391338623652
H           -4.73795048816962        0.88510380896502        0.76282258960257
H           -4.94064493681610        2.50405699922005        1.43823393914025
C           -4.45665440398135        0.12145455147092       -1.98305045352779
H           -4.51430556161876       -0.36736211453026       -2.95332810548852
H           -5.46659521389979        0.17100391511726       -1.57996713767559
H           -4.08318335990751        1.13085177430860       -2.12295545553875
C           -1.29838831822307        5.53819339659497       -0.25427254892806
H           -1.50327968171413        5.98613326027775        0.71691108746589
H           -0.24450054590849        5.66669594669340       -0.48049665413963
H           -1.88874921033097        6.07219625700599       -0.99810759035477
C           -2.78534373724926       -4.33952414318058       -0.47152156812142
H           -2.05229649004023       -4.79248077635371        0.18920465580715
H           -3.77791247430204       -4.68518468655846       -0.18539959091055
H           -2.60015806663949       -4.67196529365510       -1.49256510969357
