57
 energy: -93.035320098012 gnorm: 0.000909582901 xtb: 6.5.1 (b24c23e)
Si           0.63987501148938       -0.11672172986826       -1.15839912781101
O            1.51095886525361        0.77020725723025       -0.11980869999531
C            2.87007300467355        1.13146988361817       -0.21503009845676
C            3.75572306016245       -0.08732500330292       -0.19649526880192
H            3.02698685729143        1.67776973240726       -1.15398369125047
C            3.45951833382852       -1.14151713920611        0.65669556675840
C            4.85695109783980       -0.17609414812668       -1.03541551328537
C            4.25185481702464       -2.27468587390191        0.66649466450898
H            2.58851963508817       -1.07521260602230        1.29164792334793
C            5.65316286876773       -1.30752309442305       -1.01962782311767
H            5.07805920067374        0.63559822175736       -1.71278132771179
C            5.35177388553771       -2.35834155840092       -0.17011626527886
H            4.00792649596636       -3.09602259224675        1.32433753823203
H            6.50427878059868       -1.37355383069885       -1.68134655728885
H            5.96845045288834       -3.24526397930587       -0.16656541667684
C            3.18804862599108        2.04769627818643        0.97933157871738
C            2.46245747317486        3.29500963448758        0.88864454903447
H            4.26254488443831        2.24677661933254        0.99580790565197
H            2.90657567188888        1.52901694448447        1.89858239053673
C            1.84955025918560        4.31686752120534        0.78193938293466
H            1.32439165224088        5.22177844879615        0.71572401482198
Cl           1.75206448621800        0.38154447008034       -2.95706959329209
Cl           0.87202054052609       -2.14926928672396       -1.50807392689046
O           -0.41037103098004       -0.46274371535089        0.29930576995654
O           -0.71522562854505        0.66112928903895       -1.88262747600019
C           -2.68734235122973       -0.28759771572541       -0.23621458634480
C           -2.48044614822077        1.12485790692323       -0.36626625467450
C           -1.04732265774363        2.84592633332418       -1.22913139883531
C           -1.66912813822487       -2.39485321228208        0.24051791950442
C           -2.84912090389246       -3.06942543610817        0.08073160281337
C           -3.91095527931258       -0.95476670253915       -0.46382829487871
C           -3.98295515651847       -2.31708582455298       -0.29721860465051
C           -3.22145299330911        2.11949787791564        0.30695784361283
C           -2.88115616147280        3.44305951944212        0.15852428686899
C           -1.76822978299110        3.83423397604261       -0.62732916403787
H           -4.91040177095933       -2.83021913200781       -0.50074374895273
H           -3.43304173048554        4.19826356301833        0.69648881180717
H           -0.16314049701822        3.02178707482333       -1.82041669766930
N           -1.59639899462367       -1.06509198854632        0.09751057963483
N           -1.42055192682176        1.55795377501580       -1.13992635355778
H           -0.73756589436481       -2.88031545626821        0.47907316277287
C           -5.10301302134441       -0.22015054463234       -1.00020586009125
H           -5.87585570341360       -0.12457652358927       -0.23950611840836
H           -4.83069827990073        0.76883048365143       -1.35501766747239
H           -5.52752962112589       -0.78317018676264       -1.82913559593131
C           -4.30390455573978        1.75493137493784        1.27846486209023
H           -4.19449542509636        2.35458699564250        2.17946521801084
H           -5.28617904533782        1.96684472781845        0.86033861098104
H           -4.25488137465817        0.70558306052672        1.55065134574997
C           -2.93335914587804       -4.55017534450993        0.25689896058725
H           -3.33612263186153       -5.01409742534451       -0.64195114273972
H           -1.95191565931609       -4.96919999477508        0.45609188544805
H           -3.59770819595780       -4.79669779075379        1.08478419613401
C           -1.39939075727472        5.27533002377726       -0.76359095432815
H           -0.46079300519293        5.38243963128095       -1.29973678280721
H           -2.17568288020594        5.81054821723027       -1.31121196881896
H           -1.31042861172127        5.73844599396814        0.21816140950335
