57
 energy: -93.034456774635 gnorm: 0.000793785712 xtb: 6.5.1 (b24c23e)
Si           0.72855218036494       -0.05732673030012        1.17285032446532
O            1.52686804624744       -1.09723655814550        0.22297275199808
C            2.15222251510708       -0.90104426178587       -1.02316759412436
C            3.60152789344494       -0.52334675266117       -0.84000149536065
H            1.63312524849038       -0.10376537787584       -1.56456373805868
C            4.28386427794866       -0.86084555767791        0.31968199490389
C            4.26733485445988        0.16160700876383       -1.84906565872601
C            5.61454299765536       -0.51122009845602        0.47056480830091
H            3.76242770263184       -1.38232593092985        1.10736509545043
C            5.59882245726059        0.50351012374732       -1.69961820511274
H            3.73543741466308        0.43149837824548       -2.75122486781844
C            6.27498655679483        0.16843303176673       -0.53800615049399
H            6.13493492497930       -0.77045570881005        1.38047858893596
H            6.10837532972702        1.03838341325805       -2.48815444276040
H            7.31329892517436        0.44148252453444       -0.41930197101308
C            2.02891543164652       -2.21531839913516       -1.81942834699784
C            0.68400155365594       -2.37806793345612       -2.32402993015455
H            2.73378848607652       -2.19956741215609       -2.65456646211681
H            2.28255876470178       -3.04373866391794       -1.15403036653971
C           -0.43750693519126       -2.44814015536645       -2.73560115468231
H           -1.41394590327626       -2.53159851581062       -3.10818323613678
Cl           1.47241168621024        1.73610548460370        1.88000106436885
Cl           1.26844468045601       -1.14484128442062        2.91608666896242
O            0.09576151195580        0.83945534910758       -0.37647454905395
O           -0.91796496924599       -0.38689960397428        1.52482611011069
C           -2.17219980568404        1.38224360178505       -0.16195967104181
C           -2.45455808597886       -0.02077255816113       -0.25180302718167
C           -1.81543374782183       -2.22360386691029        0.46330119551680
C           -0.47080727469537        3.05855731227710       -0.15589727311810
C           -1.38354869315447        4.07124007130688       -0.03014588408550
C           -3.13793426091948        2.39449834231382        0.03209489682490
C           -2.74288353482331        3.70977940250141        0.08545151981370
C           -3.35590369932759       -0.61157213233834       -1.16223004907107
C           -3.48951120845739       -1.97962254823339       -1.20354780273565
C           -2.70248627506820       -2.82382418712951       -0.37872606890795
H           -3.47825066883455        4.47981708581758        0.26228780295004
H           -4.16320111038400       -2.42722944154588       -1.91859281671222
H           -1.14491772291975       -2.76188954583781        1.11354989894172
N           -0.85061840368273        1.77651869722188       -0.22444533527813
N           -1.73695288648425       -0.88449470345156        0.55595175900245
H            0.59327994015512        3.22364256375391       -0.19937923770101
C           -4.57203652436367        2.05133424834918        0.30342325221215
H           -5.20462039991784        2.32507072677866       -0.53917895053732
H           -4.69318836556381        0.99249248803960        0.50932266492399
H           -4.91676168009025        2.61532291222405        1.16810021186953
C           -4.09004551415912        0.21845817103124       -2.17307659209176
H           -4.04817945374200       -0.27152152363360       -3.14382355670650
H           -5.13973057977834        0.31839945203373       -1.90247011646264
H           -3.65408675338873        1.20829188482297       -2.26476779044061
C           -0.95958923810389        5.50199594502017        0.03052048136318
H           -1.27115153353656        5.94691289158690        0.97486656483838
H            0.11980332487142        5.58686071959824       -0.05412185289748
H           -1.42429535751256        6.07051729702857       -0.77499672434377
C           -2.81109055434481       -4.31006032463892       -0.47784067773093
H           -2.20959361516507       -4.79071962795359        0.28788068499909
H           -3.84797079072238       -4.62396193240789       -0.36422344506632
H           -2.46255015834496       -4.65034479039485       -1.45291029949963
