57
 energy: -92.957311103865 gnorm: 0.000968795999 xtb: 6.5.1 (b24c23e)
Si          -0.29662513315348       -1.67788659636039       -0.24770231281556
O            1.19729854170402       -0.82458205080879        0.25466964688486
C            2.33693212884329       -1.35587626392937        0.49281559584451
C            3.45823916007865       -0.58680918978185        0.86910997731220
H            2.43815457949809       -2.43469628183549        0.40886370506290
C            3.34000037300064        0.79238453704617        1.15018327163917
C            4.73251976396710       -1.18373567786591        0.97721673975321
C            4.44521193104894        1.53179110830801        1.49927189854583
H            2.35932081276812        1.24039390949181        1.10762562882175
C            5.82914088223195       -0.42914075135912        1.32103968217192
H            4.83008311379027       -2.23999705346129        0.77696957663162
C            5.69722700188319        0.93186790111263        1.57930462654217
H            4.34217883837575        2.58481933157940        1.72377178137487
H            6.80161370567010       -0.89362927508590        1.39506792544419
H            6.56209777220384        1.51755669881728        1.85191195843901
C            2.58736140453320       -1.62664328213726       -2.87507412614751
C            1.56277975438050       -2.20182960891981       -2.31668502190057
H            2.48449005515676       -1.02820849007374       -3.76817949309033
H            3.59221774666620       -1.77500591886599       -2.51036524841395
C            0.53710001317289       -2.65668973658929       -1.68339727412926
H            0.13493379082115       -3.62960488054866       -1.91737134590754
Cl          -2.33852760300000       -2.31572131625406       -0.82730613610840
Cl          -0.06961424269053       -3.19411229642030        1.24604919884266
O           -1.03301308933225       -0.53861740695950        1.09542103465081
O           -0.63879005024464       -0.21068328153454       -1.37663089928555
C           -2.24959152640668        1.20399879415858        0.20073952211536
C           -0.97137628979768        1.76836581170880       -0.22774945429575
C            1.00748971472545        1.36372729023581       -1.46572822567319
C           -3.30161976489951       -0.64279991161101        1.23256381615122
C           -4.55814513205554       -0.13143669746026        0.98771165240164
C           -3.49763602368956        1.76073029785001       -0.09127006079503
C           -4.63958484621628        1.08809643432103        0.31216860992493
C           -0.48227067209188        3.02105591753904        0.14782807464053
C            0.75209225739735        3.43310610066372       -0.32841636609441
C            1.51881710088263        2.60076659604791       -1.15705681483367
H           -5.60734198889639        1.49912629596327        0.06783766402066
H            1.14223891216768        4.39397356981821       -0.03025442241001
H            1.53039624605481        0.62547941999749       -2.05593219170588
N           -2.20226382173842        0.01690581615181        0.86321683869008
N           -0.20020610052722        0.97958462905932       -1.03299532275220
H           -3.13008193935557       -1.58787625325148        1.72160187243892
C           -3.62546263077750        3.02123195163481       -0.88997431455061
H           -3.90071669813205        3.85511327843642       -0.24544968622722
H           -2.69865343793829        3.26406950648414       -1.40080550972136
H           -4.41259540795139        2.90287923159541       -1.63121281865628
C           -1.23410980283217        3.89686923896933        1.10232869425135
H           -0.55368071607438        4.27598994536179        1.86207796508264
H           -1.65514139518949        4.75461717250628        0.57980533540358
H           -2.03700317985449        3.35421427248043        1.59166109181682
C           -5.77734868336931       -0.89931054791981        1.37325510275664
H           -6.06405884233544       -1.54784194095980        0.54586369988924
H           -5.58165063225798       -1.52911650506808        2.23598279442979
H           -6.60794518249703       -0.23230907623327        1.59000573573079
C            2.86241157640510        3.02419754104011       -1.65387246525487
H            3.60705300572106        2.89267948197286       -0.86944601769498
H            3.16352158761389        2.42406990169636       -2.50733557189845
H            2.85173306254252        4.07400430924703       -1.93849561734329
