69
 energy: -114.129616492331 gnorm: 0.000375390411 xtb: 6.5.1 (b24c23e)
Si           0.30080759138016        1.13087956157768       -0.85676094514195
O           -0.53176781492463        1.89856885509522        0.28636719757843
C           -1.55617159970559        2.85905043624213        0.20931420573621
C           -2.79748154421970        2.31284616381824        0.86793914455435
H           -1.76353109999850        3.09167644138706       -0.84239107598686
C           -2.68906012209317        1.42764780339529        1.93212687528125
C           -4.05656478890409        2.69495626990727        0.42532165679869
C           -3.82527692945277        0.93034287202409        2.54491680673733
H           -1.70635141572452        1.12444579452145        2.26050747074349
C           -5.19210634942181        2.20047079778471        1.04217934854318
H           -4.14375352017373        3.37514109561121       -0.40944190446408
C           -5.07920471515800        1.31755142086740        2.10302361243597
H           -3.73353930329583        0.23921752569145        3.37076362239390
H           -6.16852746380698        2.50003555127005        0.69042598016632
H           -5.96623677624810        0.92805246974125        2.58115809828394
C           -1.07861064703400        4.13998005432932        0.92036731440884
C            0.05730846951856        4.69921554939402        0.21924206401325
H           -1.89834654642172        4.86231976557111        0.94606867504669
H           -0.79015960568790        3.88654205188551        1.94368533371497
C            1.00014672097000        5.10616741627920       -0.39427756768260
H            1.82547022810494        5.47631085215611       -0.92481065868729
Cl          -0.53314699068676        2.00910247469645       -2.61031910967117
Cl           2.24116130639205        1.57200184433793       -1.42866129324953
O            0.94489081118670        0.15549784301404        0.61027924438628
O           -0.28536844718027       -0.35469506595325       -1.47916541760652
C            1.67643163702031       -1.96098741307815       -0.08447451615827
C            0.34226362782616       -2.35799076776056       -0.33655199695963
C           -1.94040352065661       -1.71206466493584       -0.61664890481819
C            3.19207409313857       -0.31052917868180        0.70777981268434
C            4.31024637467367       -1.09664197204880        0.53487211844771
C            2.78686624343729       -2.81451992653420       -0.23701379001283
C            4.05653617579540       -2.39344346168950        0.03597973523929
C           -0.12621812997454       -3.67283167994131       -0.13931128771314
C           -1.45863044425416       -3.96380703519349       -0.12929089756139
C           -2.43987285643156       -2.94582077487773       -0.29690583928987
H            2.61639291752776       -3.80285726780078       -0.63033684563990
H            4.87675325491127       -3.06940956885115       -0.13019733140569
H            0.59666301226208       -4.44441104540273        0.06915154084860
H           -1.77259794213973       -4.97750049471794        0.04379784147914
C           -3.93377704971335       -3.18351469113461       -0.14860499841581
F           -2.71396522831167       -0.66609943393387       -0.89113961522119
N            1.94249924238862       -0.70183048824088        0.40394187807677
N           -0.62098325862839       -1.43981098610669       -0.72362644713415
F            3.24591675009541        0.88834500479589        1.26873586565125
C            5.69879068885065       -0.57011512837649        0.85416364564011
C            5.78604776469724       -0.21377938923758        2.34561414251438
C            6.77987742282991       -1.60962016518864        0.54552484930401
C            5.96283621594935        0.67429965137733       -0.00554694342820
H            5.54292645351601       -1.08032051700484        2.95771016143015
H            6.79754894626242        0.10384578277672        2.58627436355610
H            5.10996452005740        0.59493281994975        2.60237647669218
H            7.75492931791504       -1.18496234430687        0.77131826258744
H            6.65566751994527       -2.50251123195016        1.15412162882446
H            6.77154980840147       -1.88433217763507       -0.50628644976864
H            6.96061076293066        1.05569704713619        0.19704618376240
H            5.89360817794531        0.42372881615329       -1.06140319576283
H            5.24650865038654        1.46266700336008        0.20007602105841
C           -4.47791439085672       -2.26464150198169        0.95466508246988
C           -4.63674073425798       -2.88015347805873       -1.47970411483576
C           -4.23780514742197       -4.63384002208732        0.23723685602594
H           -4.35020200897879       -1.21601151387803        0.70429759611220
H           -5.53982915779533       -2.45001627867092        1.09612353082140
H           -3.96623165962154       -2.45992905143762        1.89480346257804
H           -4.53046888074835       -1.83636316100623       -1.75715845126714
H           -4.22253522952469       -3.49564648485867       -2.27566925422638
H           -5.69796687710038       -3.09948761309748       -1.39164230523610
H           -3.76132726970957       -4.89897134089255        1.17799418098507
H           -5.31163162918296       -4.75086605102348        0.36092055073894
H           -3.91506561086482       -5.32425866857056       -0.53829428100057
