69
 energy: -114.129461595528 gnorm: 0.000509540262 xtb: 6.5.1 (b24c23e)
Si           0.15517886608374        0.89966967613606        1.38895592414906
O            0.43378624085444        2.25865149398354        0.56501777856305
C            0.07347199787282        2.65490906201630       -0.73914367028658
C           -1.41920747844382        2.79824701535269       -0.88390776423024
H            0.43364604695499        1.90077923621073       -1.44905369599784
C           -2.19103063590508        3.23063103629631        0.18462466058042
C           -2.03564959157938        2.49683861789288       -2.09060549066941
C           -3.56417949838210        3.33538351425043        0.05615501488211
H           -1.71208529898190        3.46499082100045        1.12342009507623
C           -3.40753924701471        2.61160394456488       -2.22157875050483
H           -1.43723647841522        2.15843080257491       -2.92525342086549
C           -4.17519351716875        3.02465050519722       -1.14606005423505
H           -4.15782999341025        3.65668982888775        0.89899906962681
H           -3.88007519807652        2.36718176799707       -3.16237068351258
H           -5.24828558876609        3.10050133592626       -1.24479148125538
C            0.77896058480624        3.99542828452271       -1.01837147261472
C            2.19929381177949        3.80104098033557       -1.21253692245295
H            0.34352703020292        4.45022641757888       -1.91235833614806
H            0.61286807185462        4.65481537651416       -0.16367982572728
C            3.36391822887243        3.59041127102799       -1.38850881704938
H            4.39246774679302        3.44057585174773       -1.52854605967555
Cl          -1.64767974091102        0.29687117462645        2.21928163895072
Cl           0.93576670801234        1.69307159306485        3.14646190732646
O           -0.38465389854054        0.06522161219366       -0.28973801031947
O            1.29637164429415       -0.36441851203375        1.49733088935054
C           -0.21054814030534       -2.26225476315352       -0.12798848200603
C            1.20137233294569       -2.17386561052274       -0.07888597796388
C            3.15544390338580       -0.83012526167056        0.22002536760297
C           -2.31302519726978       -1.17178624581957       -0.31404345196036
C           -3.04618250142880       -2.33748551808867       -0.28608652593795
C           -0.91705245998190       -3.48130352721438       -0.13297438216822
C           -2.28113324090651       -3.51982628367114       -0.19050579199030
C            2.04878946531733       -3.14832843892417       -0.64433102316556
C            3.38380115397278       -2.93080814456048       -0.81583660485084
C            3.98366460800948       -1.69496744247313       -0.44187775514296
H           -0.35425473843630       -4.39453961557987       -0.03454456686060
H           -2.77692639041789       -4.47412143480815       -0.15879373567147
H            1.60209604806316       -4.06147556152577       -1.00165210965975
H            3.98656873444654       -3.69617815054576       -1.27059241631473
C            5.43552649334248       -1.34363523748314       -0.72350591538306
F            3.57331186707539        0.32851528327870        0.71794800380187
N           -0.97267796052644       -1.12295349332345       -0.24005346174509
N            1.84644962939186       -1.07121880672712        0.46485534693815
F           -2.87501611897510        0.01588321370033       -0.48694055472990
C           -4.56349304223229       -2.30611685340541       -0.33773949649232
C           -5.02212225596381       -1.65389724699871       -1.65077605504475
C           -5.15696400379256       -3.71574098015287       -0.26705428117489
C           -5.08085652449816       -1.49892301154438        0.86165133548456
H           -4.61256786399013       -2.19065626731588       -2.50455001636411
H           -6.10703314139446       -1.68549374584259       -1.71365773792060
H           -4.71204065006839       -0.61542994175084       -1.70983003496506
H           -6.24158968894368       -3.64663111119904       -0.29508904205156
H           -4.83865800509160       -4.32147714646015       -1.11255621565471
H           -4.87831651722199       -4.21239516523360        0.65896249928988
H           -6.16806702926449       -1.49218174820795        0.85807011052211
H           -4.73872917448807       -1.94553810858196        1.79221534613068
H           -4.73243525615219       -0.47162072209909        0.83245129592524
C            5.49078336081042       -0.04158698820966       -1.53578093357413
C            6.18226440339815       -1.16602357691840        0.60675415806198
C            6.13504728690719       -2.44262964062382       -1.52802375195857
H            5.06803218667572        0.78979340377050       -0.98115894815255
H            6.52463204096078        0.19858508644056       -1.77257008038220
H            4.94023326610004       -0.15295281118526       -2.46798976591052
H            5.77472006443142       -0.34293520528655        1.18509969384836
H            6.11500482564359       -2.07423017785283        1.20206633307264
H            7.23186077225657       -0.95784948782640        0.41389171348364
H            5.63424011156825       -2.61385138634131       -2.47797656665940
H            7.15647308440043       -2.13451031900910       -1.73773960504654
H            6.17758344946305       -3.37438851691706       -0.96937844021578
