69
 energy: -114.131530803143 gnorm: 0.000370007921 xtb: 6.5.1 (b24c23e)
Si          -0.47516156544049       -1.52949902466350       -0.64002624022688
O            1.11355567934496       -1.34678425132558       -0.32090721029478
C            2.10528236526583       -2.26800706757583        0.05217413600679
C            2.97502293963637       -1.68349705626982        1.14049430480745
H            1.62346947684876       -3.18046071345487        0.43040263197736
C            2.73513345641113       -0.41823486625409        1.65731914665579
C            4.03623947977851       -2.42243715581304        1.65390465763165
C            3.55399725378922        0.11438667276257        2.63838941073322
H            1.89280998198983        0.15037452987952        1.29755412101679
C            4.85433640565734       -1.89197207720539        2.63375841543066
H            4.21489032172799       -3.42575286872853        1.29622167640116
C            4.62314428573118       -0.61661126730647        3.12324644545631
H            3.35023913109637        1.10341826979222        3.02434588523963
H            5.67498307869691       -2.47762830953009        3.02114495875677
H            5.26587654799834       -0.20211764360599        3.88576484334602
C            2.93497960060789       -2.62736620712906       -1.19800937816364
C            2.11879588686969       -3.34653931501950       -2.15251946416355
H            3.29640707162063       -1.70331253162443       -1.65608518109157
H            3.79202178047567       -3.23868998622283       -0.91013416332601
C            1.40135072012658       -3.92490963174135       -2.91490996058019
H            0.77068389197875       -4.42428843309158       -3.58727625234553
Cl          -1.36294835518212       -2.07002896619533       -2.39033424733559
Cl          -0.77491748865571       -3.36895502223177        0.37312975190364
O           -1.41357933028834       -0.80611423969500        0.60205621778990
O           -0.39971954656911        0.17281974281182       -1.44360453693981
C           -1.60729971179991        1.58037296150417        0.58285095571776
C           -0.26542836460353        1.82602592004653        0.20715401496261
C            1.58025533418719        1.32597147881060       -1.20308388761872
C           -3.51221587165436        0.14096487548579        0.55221537107564
C           -4.40513968823831        1.13638494835175        0.84794751636074
C           -2.47758792631712        2.60308762483349        1.01150454266049
C           -3.81868543426649        2.39760268939010        1.14592142946609
C            0.53079216250391        2.83726637169718        0.78218409911290
C            1.81962318249919        3.04654004406285        0.38527031045539
C            2.40662660592631        2.27782780336723       -0.64641679669371
H           -2.06424894463030        3.58538049206708        1.17157203079087
H           -4.44645809673227        3.21475749895093        1.45290316998061
H            0.11196194487463        3.41465684049349        1.58963418972287
H            2.39863799104329        3.80863114900440        0.87590964296920
C            3.83092934251243        2.48068538783008       -1.13661716817630
F            1.95986458799917        0.56510430241301       -2.22079576889904
N           -2.17283764703880        0.31837365990450        0.49068609807054
N            0.31471418148445        1.10291167426048       -0.81105444456745
F           -3.88089198446699       -1.11526697609836        0.33412318278430
C           -5.90316169456164        0.87981003493596        0.86373426428034
C           -6.23071187465087       -0.16232903788048        1.94323549717054
C           -6.68934767838760        2.15729762866932        1.17150862832795
C           -6.33964937552172        0.36540797597008       -0.51577834357021
H           -5.89100871223437        0.18247913118391        2.91784522760062
H           -7.30582186692804       -0.31734592702935        1.98833973932508
H           -5.76089963807844       -1.11723695933828        1.73048853486838
H           -7.75317609314197        1.93484322130862        1.14305235045672
H           -6.45560543454096        2.53605115827285        2.16366085428196
H           -6.48867318671795        2.92983478604444        0.43298511239012
H           -7.41761762561369        0.22459618429672       -0.52988318376426
H           -6.07607197842543        1.08465908174223       -1.28855942791046
H           -5.87333874332148       -0.58497885478617       -0.75459263520033
C            4.60800432958137        1.15986594368282       -1.04006455698225
C            3.79312059171192        2.96208015730024       -2.59506635759565
C            4.56883186146085        3.52773605020724       -0.29784282799565
H            4.21610237263781        0.41859215330542       -1.72856225834408
H            5.65189227755488        1.32975288844941       -1.29272702549760
H            4.55683792300879        0.75895451364610       -0.02974730513079
H            3.32892426501809        2.22570173784072       -3.24413098078044
H            3.23594613038753        3.89365874361564       -2.67309368574482
H            4.80583954374176        3.13565336975350       -2.95049291433316
H            4.62066951895229        3.22498870840913        0.74525398454525
H            5.58616419617403        3.62712658838622       -0.66836348005465
H            4.09290515907924        4.50279639506324       -0.37078566717189
