69
 energy: -114.134247559255 gnorm: 0.000777191950 xtb: 6.5.1 (b24c23e)
Si           0.28116923492102       -1.30476069581678       -0.35501266478337
O            1.58220561671122       -0.60667162097325        0.33608131642009
C            2.55365914431695       -1.18740310975473        1.17576426371787
C            3.41876809923306       -2.16275729841753        0.42112989429182
H            2.04544953804173       -1.70617769456102        1.99681644083929
C            3.79591691563278       -1.88530112233307       -0.88551656903462
C            3.84492054302174       -3.33898292487080        1.02068063291341
C            4.58427019723537       -2.77852967743716       -1.58793670062830
H            3.44928285724869       -0.97777734425741       -1.35710131194145
C            4.63957882997239       -4.22776735617380        0.31936547472879
H            3.53812323648694       -3.56442890025399        2.03133395834868
C            5.00983515215023       -3.94990150289893       -0.98559343774866
H            4.86269305745972       -2.56086033549160       -2.60844424250299
H            4.96180466167770       -5.14534088325386        0.78934610444134
H            5.62263946245223       -4.64960060720389       -1.53506066238089
C            3.41362542430052       -0.04339038388904        1.74328059557023
C            2.58258188905895        0.94101646115660        2.40025740832755
H            4.13336195458830       -0.45992418379173        2.45170028573161
H            3.95889362689480        0.42655357376285        0.92112120433013
C            1.85371675469854        1.74866413636304        2.89936111041609
H            1.23374936824671        2.45284357599932        3.36785111849439
Cl           0.27241021628139       -2.16412456729916       -2.20493905154214
Cl           0.27699880453886       -3.11607735637193        0.75758550299087
O           -1.17561164442423       -0.92809440023489        0.47507908598882
O            0.05169512123072        0.28887579111781       -1.30190378830428
C           -2.13585987894071        1.23108336005510        0.07991445438174
C           -0.90924429758194        1.93487590741973        0.05867635252332
C            1.32811521567704        2.11510076490296       -0.71678337741446
C           -3.34680105593121       -0.79669235391873       -0.27496879544009
C           -4.56486649969807       -0.18044193441619       -0.38491267217591
C           -3.38556162530376        1.88545014750099        0.09735979772264
C           -4.55339175676764        1.21704716038428       -0.11973440498232
C           -0.73642876867811        3.20432677009256        0.64758033970165
C            0.43880668246064        3.88885869551676        0.54529266582967
C            1.53854891906089        3.36154888153141       -0.16986886905619
H           -3.39505843589862        2.95560259054874        0.22298425945809
H           -5.47884394662778        1.76449754621721       -0.12084055542913
H           -1.55317580809681        3.61372517343412        1.21886488643567
H            0.52645962503169        4.84842234951966        1.02366038857388
C            2.83871992362087        4.12052039181954       -0.38187008535881
F            2.25022530895202        1.49561897335145       -1.44281963953449
N           -2.19281820490575       -0.15215650500242        0.01294278223034
N            0.17196208344913        1.43697095841553       -0.63139802984329
F           -3.19103533113977       -2.10848432014436       -0.40565866910798
C           -5.81971164176617       -0.95791972173659       -0.74723627200640
C           -6.10382283024307       -2.00158873987022        0.34331432030747
C           -7.03756875387662       -0.03684803484677       -0.86440666445430
C           -5.61019289656691       -1.65316316245288       -2.10051701917397
H           -6.21721540112135       -1.51659983772969        1.31097578141202
H           -7.02533638162790       -2.53063503038789        0.11318199303650
H           -5.30374283758595       -2.73170043558813        0.41314821373638
H           -7.90220340532081       -0.62738243387096       -1.15721527731473
H           -7.26677929272220        0.43909382533181        0.08619916267766
H           -6.88109202929154        0.72693235852422       -1.62267309791144
H           -6.51862645369602       -2.17719397508176       -2.38730143135976
H           -5.37764590836616       -0.92011108791573       -2.87043433760973
H           -4.80359144643075       -2.37797233775995       -2.05831252727514
C            4.02759587426831        3.28783404388101        0.11536003009170
C            2.99534641235794        4.41512229526365       -1.88202511400427
C            2.84215036902998        5.45141831301562        0.37545723525883
H            4.15782245110539        2.38989874213255       -0.47980864857937
H            4.94105369588353        3.87325969970297        0.04118920108736
H            3.87751008845856        3.00505678324861        1.15507940037952
H            3.05868971438756        3.49903170329149       -2.46137586629364
H            2.15052938916474        4.99725915869605       -2.24500395648791
H            3.90504135466904        4.98605713640523       -2.05107882911724
H            2.73709064046781        5.29070160013790        1.44573321585512
H            3.79039753564102        5.95521867857104        0.20436042844825
H            2.04970654251965        6.10944332869290        0.02658426211056
