69
 energy: -114.129422652160 gnorm: 0.000773166182 xtb: 6.5.1 (b24c23e)
Si           0.54373859975970       -0.70797070129429        0.60080964015458
O            0.69633771949834       -1.75298905347140       -0.62016466886557
C            1.19202671749853       -3.07178293264764       -0.58739760796413
C            2.65869573303087       -3.08687092931367       -0.23995360639000
H            0.63266816259222       -3.64456476004054        0.16272389299114
C            3.49127622017016       -2.08218367884236       -0.71381853947006
C            3.18773109592304       -4.09448839061550        0.55388267606874
C            4.83576838754011       -2.07974268220278       -0.38980216080337
H            3.07402685247841       -1.29015154697567       -1.31753463252441
C            4.53456349490036       -4.09544118729339        0.87019863484478
H            2.53878781074147       -4.86866704144610        0.93617468604328
C            5.36028849382777       -3.08794082169281        0.40063875278679
H            5.47299498380044       -1.28636193827242       -0.75163480911311
H            4.93857674512568       -4.87912365687353        1.49422445390680
H            6.40979139645601       -3.08499397899027        0.65682854742405
C            0.96707082870696       -3.68164028435606       -1.98220281685420
C           -0.44208747473495       -3.79555619274625       -2.28901346206019
H            1.43204447581565       -4.67050588870356       -2.01383636409537
H            1.44772853936038       -3.03695803041756       -2.72217075660190
C           -1.61081817134090       -3.88086087038931       -2.53005987687025
H           -2.63093019187369       -3.96944156201269       -2.75713449604841
Cl           2.05372165126996        0.45161691191733        1.44648825159673
Cl           0.54722082350679       -2.07805261651726        2.23791571187929
O            0.35072994716264        0.52179356175132       -0.78175751571495
O           -1.01087201991192       -0.25057517744966        1.14245108374337
C           -0.85507249033712        2.39175699286055       -0.03946907516407
C           -2.03648699684439        1.61940477501422        0.05496662616124
C           -3.06809602624892       -0.53212863121498        0.14709416281413
C            1.44656245024011        2.53194969742484       -0.61663559214500
C            1.55369877900825        3.87263863716816       -0.32162679555449
C           -0.80448652061640        3.77465346688430        0.22720493879544
C            0.35709177907419        4.48310368993075        0.11728971345834
C           -3.31645829135629        2.14172681059178       -0.22237212016411
C           -4.40620318602019        1.33513273810394       -0.36585754952577
C           -4.29829659656009       -0.07906158695793       -0.24887111047603
H           -1.70092224406422        4.25617710920389        0.58101016378925
H            0.35538943550233        5.52879558607884        0.36984772804135
H           -3.40579578467212        3.20317397264130       -0.38535221499189
H           -5.35830615573767        1.77599420354714       -0.60093994434106
C           -5.45125027497517       -1.03474107414028       -0.50986929714269
F           -2.81969033147054       -1.81189708907769        0.40048656727559
N            0.31637589942434        1.81777916107151       -0.47509173093371
N           -2.00092469155848        0.26856863506808        0.36223560491979
F            2.44362051298486        1.83583104708038       -1.14463077687291
C            2.87919361940471        4.60362850929892       -0.44772708559746
C            3.35744990001942        4.56332860404012       -1.90658305403814
C            2.75615632439684        6.06967710655493       -0.02347612992052
C            3.90494224081732        3.91866946438634        0.46687731836475
H            2.60821410542885        5.00044445653186       -2.56397995181734
H            4.27663570132901        5.13554391534616       -2.00499666370691
H            3.55712330998255        3.54808804259409       -2.23283110774229
H            3.72881021120248        6.54736317521091       -0.11174680238072
H            2.06003800362353        6.60928658374512       -0.66163265648256
H            2.43686776447806        6.15293372761114        1.01234633804701
H            4.85699744366960        4.44029049452978        0.40728071644371
H            3.56132652955215        3.93792142034572        1.49831643573284
H            4.06343785184346        2.88273814996999        0.18638207878655
C           -5.02695140045621       -2.06493224001062       -1.56643618118275
C           -5.82210401167776       -1.74740225205261        0.79914158664659
C           -6.68813996675739       -0.29600094175430       -1.02860841093266
H           -4.21045891276219       -2.68321092265445       -1.20782398030121
H           -5.86675266973510       -2.71475938246413       -1.80207642065148
H           -4.71129835527433       -1.56242468107013       -2.47887171332060
H           -4.99552169775600       -2.34279709755806        1.17429568942597
H           -6.09920892884368       -1.02083080105969        1.56024701124113
H           -6.66808207030510       -2.40929356800956        0.63054323634977
H           -6.46691104474168        0.24266055505734       -1.94703751103680
H           -7.47073413734757       -1.01964040822305       -1.24339003112083
H           -7.07410589716603        0.39879839725354       -0.28671802681464
