69
 energy: -114.124867531393 gnorm: 0.000800474358 xtb: 6.5.1 (b24c23e)
Si           0.22204002961608       -0.74979265858044        0.19010546543692
O            1.22777955311662       -2.00285220416597        0.02859756455536
C            2.32957711862804       -2.47107432317424        0.76275633761205
C            3.45479854341936       -2.83393611708373       -0.17103478683774
H            2.66325246000736       -1.69666235609021        1.46298235657241
C            3.19250847705375       -3.23363734889453       -1.47378291323266
C            4.76738822660634       -2.80305087252903        0.28208896966500
C            4.23108609472552       -3.59200643891446       -2.31493439267310
H            2.17161296676485       -3.24723695956397       -1.82283424649849
C            5.80358415698475       -3.16961759198660       -0.55754616255423
H            4.97504028484126       -2.48556853860733        1.29422606094181
C            5.53749491423084       -3.56429405658536       -1.85815920766383
H            4.01903016786196       -3.89581207819742       -3.32969933258027
H            6.82199613933688       -3.14268083581260       -0.19782209787526
H            6.34803053074392       -3.84621605867611       -2.51441820751214
C            1.88417871731105       -3.71537204041443        1.56112078415858
C            0.79655443550938       -3.37216506239853        2.45079661084096
H            2.73495737693423       -4.10036033381484        2.12828513039520
H            1.54735197217834       -4.47972710441900        0.85538942095345
C           -0.11722950983788       -3.02073178258568        3.13840549649783
H           -0.92032059563286       -2.73622225786964        3.74958783863925
Cl           1.24137791969629        0.18339520801140        1.85397658412476
Cl          -1.01268689746209       -1.74571006931237       -1.26342180561909
O            0.45348328235008        0.54525834544903       -0.91657373197647
O           -1.18154001667295       -0.09708754790296        1.00530533931355
C           -1.02035095169597        2.32617475429212       -0.38062572919215
C           -2.18652935427092        1.51137932220936       -0.38074556322620
C           -3.31977918458313       -0.50150248086247        0.22416357527787
C            1.35530850326182        2.58966503923717       -0.34231932590216
C            1.31332351309465        3.94344799835397       -0.12207140495073
C           -1.09992447749674        3.72786223034646       -0.26651935590521
C            0.01139062531710        4.50835335164880       -0.13068108404552
C           -3.38664016062073        1.91727898258561       -0.99421303588923
C           -4.48491477532611        1.10672874129072       -1.03484705708761
C           -4.48358437549202       -0.17301212138450       -0.42736469083190
H           -2.08002330458663        4.17311940631491       -0.21465255692592
H           -0.10710866406612        5.57010805189824       -0.00766685636685
H           -3.39903185873232        2.86813712341049       -1.50129191489135
H           -5.36421798523336        1.44648566641681       -1.55290297274138
C           -5.65248288771398       -1.14048496031673       -0.49150284240709
F           -3.17982218513117       -1.60851623994635        0.93730619361254
N            0.26082981743982        1.82038429603920       -0.50608098908501
N           -2.24136500768610        0.30048641536365        0.27406474946971
F            2.49013121666654        1.91953011388361       -0.48192299384282
C            2.58084704981448        4.74616367791261        0.11631433597722
C            3.48959287265468        4.65829499169056       -1.11859659962985
C            2.27020430413280        6.22195967287321        0.38094308611942
C            3.30073580354766        4.17405304030943        1.34610644472662
H            2.96411629400384        5.01486312672085       -2.00234945467077
H            4.37012660406753        5.27814183890856       -0.96880063472120
H            3.82114150185974        3.64083933371916       -1.29828205076256
H            3.19997854672076        6.75115405909210        0.57465509941808
H            1.79545402744408        6.68654676360153       -0.48017888260777
H            1.63143898947031        6.33855979405118        1.25294453430193
H            4.19921086476599        4.75200644788844        1.54822538785849
H            2.65315775662540        4.22349137656400        2.21851062194449
H            3.58861167281606        3.13868234912055        1.19589779039572
C           -5.17759770181657       -2.43359014813175       -1.16929124804160
C           -6.15720140427206       -1.43830063326853        0.92809690672248
C           -6.81533273973057       -0.56512389139821       -1.30446055331455
H           -4.38236120185221       -2.91119410892375       -0.60686844260411
H           -6.00706615442508       -3.13161146177801       -1.25222084638648
H           -4.80032309162057       -2.21873246233829       -2.16603671829571
H           -5.40088599620720       -1.93976795592809        1.52279691675430
H           -6.44276603747785       -0.51633759603737        1.43107469408870
H           -7.02891871173653       -2.08592368007043        0.87707538401054
H           -6.51179518658353       -0.35287322740429       -2.32646258914241
H           -7.61906131217731       -1.29638418366372       -1.34006658575805
H           -7.20820860148745        0.34031926982992       -0.84747281613780
