75
 energy: -120.467725385578 gnorm: 0.000792820871 xtb: 6.5.1 (b24c23e)
Si           0.32441797450908        1.72498821936758       -0.17619200623510
O           -1.27052696180042        1.47336924090436        0.02164973507333
C           -2.27048239170724        2.17607938867738        0.71830976220996
C           -3.04806786494998        1.17739612602956        1.54897789156982
H           -1.78824492638345        2.90137329489318        1.39069807694214
C           -2.37547977121985        0.07812906943433        2.07388620968656
C           -4.40417567817938        1.31510654385319        1.82098846151543
C           -3.04296215193770       -0.87353846771919        2.82162537845545
H           -1.31592135350626       -0.02409259965066        1.89793307023581
C           -5.07090228545887        0.36704524137387        2.57952233706625
H           -4.95730981005181        2.16183040210418        1.44646587943488
C           -4.39735602704559       -0.73615366289516        3.07386712538552
H           -2.50118264491117       -1.72113943658352        3.21636676709740
H           -6.12543285781582        0.49066048556352        2.77972792769522
H           -4.92254145944996       -1.47755656535258        3.65818052994483
C           -3.12915930504481        2.94890176902569       -0.29765465690326
C           -2.29091159232392        3.82366773242727       -1.09187518920153
H           -3.86972184371480        3.55225350136873        0.23053962188989
H           -3.63708149657818        2.23903923176914       -0.95636617147462
C           -1.56437075403447        4.52435886864576       -1.73335365362014
H           -0.92450695609641        5.13595079536236       -2.29522377233343
Cl           1.30332556029520        2.64635205214426       -1.70941516855048
Cl           0.55939597468506        3.30306510442028        1.23377170220824
O            1.21624388881398        0.70811214425583        0.90456312638819
O            0.29127648033649        0.26512332480586       -1.36060592594976
C            1.69554157141275       -1.48326453882118        0.11676386710720
C            0.29428982621610       -1.70035900092320       -0.08549293443354
C           -1.65190891104043       -0.97850783628875       -1.25263546998578
C            3.41288289591118        0.16477245470021        0.42152044130520
C            4.43381313714164       -0.71101881952702        0.16724287466131
C            2.70866383468992       -2.42878295153078       -0.12907187402248
C            4.02993758698801       -2.04644973506611       -0.08497066825521
C           -0.47717105198577       -2.72892870098208        0.48966661400262
C           -1.79924813856450       -2.86763323316410        0.13843556599172
C           -2.43025838774727       -2.01703216974808       -0.79419207274220
H            4.77832086354972       -2.78531490887028       -0.31123438710311
H           -2.37109300141762       -3.64445467792969        0.61542941960326
C           -3.85663795347164       -2.21721051627076       -1.27967012815757
F           -2.09949673033080       -0.07321405369774       -2.11411194424381
N            2.11534758728298       -0.20577467069106        0.45742137364089
N           -0.36505777998599       -0.81130561795401       -0.91282989738588
F            3.60504364575007        1.44996351979652        0.68996910397946
C            5.88065144895351       -0.24638450472697        0.12679369990180
C            6.26792355817302        0.33295727308492        1.49550757657459
C            6.83633118835631       -1.39854910274442       -0.19508205497790
C            6.03126320589752        0.82617466075546       -0.96225281543149
H            6.13261178074373       -0.41440459952981        2.27538906395773
H            7.31315154014727        0.63282669046646        1.48393790821303
H            5.67086284806462        1.20480556130813        1.74248037085960
H            7.85594197243255       -1.02066409960196       -0.20759111409276
H            6.77909836907744       -2.18104364684867        0.55831938816666
H            6.62583123964248       -1.82272497526420       -1.17410746178659
H            7.07111585536172        1.13690383226140       -1.02985073577286
H            5.72555102510350        0.42942451511010       -1.92825747852988
H            5.43002617403960        1.70340772923310       -0.74612129285020
C           -4.69488283249575       -0.96416574156525       -0.99633017158904
C           -3.82318178777370       -2.49459104720225       -2.79087515758559
C           -4.52777374159910       -3.40331262703020       -0.58207443083811
H           -4.68828622514730       -0.73890678674071        0.06714378466945
H           -4.31787961937668       -0.10250190188722       -1.53696033484356
H           -5.72282152486438       -1.13336538815288       -1.30894556480623
H           -3.41309616810535       -1.65125298523058       -3.33842096510533
H           -3.21763468662723       -3.37382198698713       -3.00248779898199
H           -4.83186072820031       -2.67561843369454       -3.15438137900632
H           -4.59044601876977       -3.23772541927381        0.49085141709170
H           -5.54004612011760       -3.51370654130734       -0.96342337733874
H           -3.99480193576027       -4.33096032978850       -0.77694067705580
C            2.37875677595209       -3.82637241411744       -0.56016157398631
H            2.46588863339749       -4.51735210648909        0.27666059290323
H            1.37178241021471       -3.88737754596458       -0.96065427398569
H            3.08091549246258       -4.14672030716758       -1.32637281196490
C            0.08896887208349       -3.60149598044635        1.57010645849052
H           -0.60294436129634       -3.62704046210699        2.40992636816449
H            0.21635294310005       -4.62465520153874        1.22100452576617
H            1.04466967610101       -3.22358747407902        1.91922337326865
