75
 energy: -120.467698894368 gnorm: 0.000406386378 xtb: 6.5.1 (b24c23e)
Si          -0.35632301728721       -1.62370579714981       -0.62914404857030
O            1.25325384542800       -1.45281179686283       -0.46874944627957
C            2.26827528079220       -2.32381084774070       -0.03367279793872
C            3.13344443651672       -1.57336384527271        0.95630630944910
H            1.80275815250954       -3.18137017830501        0.47463986827379
C            2.54356943287506       -0.60447120638503        1.76193156707699
C            4.49398249105457       -1.81672940691945        1.10270781984784
C            3.29543962072920        0.12486310282603        2.66390214406159
H            1.48223035085498       -0.42849714843114        1.68241235846388
C            5.24534273618218       -1.09364006941707        2.01413238185820
H            4.98408917650992       -2.57221721532105        0.50948806327713
C            4.65329104763152       -0.11260764355222        2.79019604595857
H            2.81696514970088        0.87570956586897        3.27636715644065
H            6.30194514532424       -1.29554500927403        2.11256233417913
H            5.24468870165767        0.45573843792694        3.49310668470370
C            3.03615092162477       -2.84241522651774       -1.26221440604213
C            2.11913666942571       -3.46025574226952       -2.19778495865950
H            3.77369575356094       -3.58343610251493       -0.94804642826445
H            3.54302284546456       -2.00627811156016       -1.75190959884819
C            1.32754114327807       -3.94951937046536       -2.94890702875215
H            0.63228098569822       -4.37697514346347       -3.60711842193841
Cl          -1.46216637871708       -2.12235391112802       -2.26982897639480
Cl          -0.55761896626513       -3.49880754645221        0.35953059617267
O           -1.14929801165822       -0.88479294806632        0.72217414764403
O           -0.34414679152231        0.07635315802528       -1.42641258571354
C           -1.63393638549382        1.43118797901336        0.49801015387799
C           -0.24142269316427        1.68220929139120        0.27500774175660
C            1.63116257029249        1.23786769837624       -1.12759402909092
C           -3.36118658916128       -0.23363201117446        0.53068301803018
C           -4.37839592974700        0.68234539872603        0.54940112758130
C           -2.64151834467889        2.41295590716266        0.53468904889480
C           -3.96486732063480        2.03798975400271        0.57558072018219
C            0.57631248775577        2.54326503713526        1.03219629194790
C            1.88309268554307        2.74747850183950        0.65691767876404
C            2.45233136403660        2.13104923917553       -0.47779562635541
H           -4.71086696515360        2.81296032837680        0.56794498530105
H            2.49246533500236        3.38715724771664        1.27116587373728
C            3.85877383628587        2.42557946468930       -0.97305646589686
F            2.01724588039024        0.55860334382878       -2.20062934746965
N           -2.05685757127002        0.11177482027676        0.56250871048429
N            0.35869741058613        1.00727420715801       -0.77070833077260
F           -3.56202596899186       -1.54500277200044        0.51652485942173
C           -5.83382917152084        0.24612078710704        0.51068840898942
C           -6.13725548501557       -0.61360117459989        1.74652616291419
C           -6.78451490098582        1.44641079603414        0.51417562165968
C           -6.08234904727678       -0.56384230514375       -0.76996515873375
H           -5.92812268284955       -0.05510640743083        2.65698275097054
H           -7.18754118823257       -0.89448879347526        1.74891036590259
H           -5.54563490978024       -1.52338648943743        1.75342926296450
H           -7.81017030355138        1.08659490820235        0.48906075239017
H           -6.66218461059354        2.04458279584145        1.41416297543404
H           -6.62946949834717        2.07313377380620       -0.36072098058395
H           -7.13024122926122       -0.84846195782951       -0.82594363888732
H           -5.83879559067429        0.03189284221811       -1.64711407746603
H           -5.48488848708757       -1.46940492414258       -0.79409326603132
C            4.67882783694956        1.13129902033625       -1.04704443089327
C            3.75975452524411        3.06389059721660       -2.36733046957310
C            4.59112939362956        3.39686342632096       -0.04349501029746
H            4.70819996571847        0.64772122961371       -0.07407285018191
H            4.26267351754515        0.43643202272859       -1.76867767523702
H            5.69761654332781        1.36081521563759       -1.35084913277197
H            3.30229583986928        2.38473480388501       -3.08052907220294
H            3.16706683790927        3.97589550325679       -2.32668161178767
H            4.75390185147408        3.31534643500594       -2.72879922436324
H            4.69478541410110        2.97549780243061        0.95360937012163
H            5.58890434803939        3.57976293414157       -0.43494801830171
H            4.07626300588355        4.35288442154300        0.01665874216121
C           -2.31020438888084        3.86955485483842        0.40767055061845
H           -2.33593716273150        4.35608621218559        1.38107067920755
H           -1.32688110999957        4.01279281127284       -0.02914605740470
H           -3.04893039016121        4.35725499416995       -0.22384349021705
C            0.07804936424562        3.14847704777140        2.31040798227151
H            0.81065100603851        2.97990767782232        3.09729857991040
H           -0.05109471617813        4.22447461556598        2.20948370783165
H           -0.86507109981897        2.70452608982772        2.61300406117092
