75
 energy: -120.462652789013 gnorm: 0.000771289054 xtb: 6.5.1 (b24c23e)
Si           0.60518125389532       -0.55923625506868        0.40814425390485
O            1.90716588458411       -1.47856420732449        0.65014964306155
C            2.27918999469698       -2.78895619555356        0.31408159676986
C            3.63893322847011       -2.79472511075689       -0.33624906497720
H            1.54068073030202       -3.22261363358352       -0.37013685279732
C            4.52141001446196       -1.73968133896280       -0.15584507588820
C            4.02737665506161       -3.88647940280955       -1.10308510839074
C            5.77637787522119       -1.77536031768225       -0.73856201347302
H            4.21154260003290       -0.88994722924266        0.43243508550273
C            5.28458429187153       -3.92354221407395       -1.67769418059792
H            3.33804448977418       -4.70570541653657       -1.25304486236222
C            6.16224894699944       -2.86743353293609       -1.49621618061425
H            6.45561383433438       -0.94736232769152       -0.59784397123573
H            5.57900421106364       -4.77650773816303       -2.27194642415986
H            7.14312648515970       -2.89601183289684       -1.94814802646955
C            2.30478546907362       -3.62413096948855        1.61136526592023
C            0.97621180698609       -3.70058081420887        2.17817865403707
H            2.67946451928964       -4.62564561041662        1.38754591123114
H            2.97968814022168       -3.13922499597274        2.32138438081216
C           -0.14362607159870       -3.71113267147698        2.59861168456968
H           -1.12051198903145       -3.73114795813776        2.97890557264698
Cl           1.48617699090133        0.82037127677993        1.79723076401578
Cl          -0.42490565566734       -1.98856066788420       -0.89813785155723
O            0.50488436033129        0.55134042666038       -0.90755242675766
O           -0.88055352405304       -0.14068500887122        1.20553924424250
C           -1.15657568108680        2.12461014451220       -0.32094674864344
C           -2.14967986434765        1.07943593372524       -0.36339267649248
C           -2.88443031066645       -1.04200148978872        0.47169396765138
C            1.15653923756906        2.72781873321687       -0.48644034106115
C            0.94080407868975        4.03651308546290       -0.13957351448605
C           -1.43485102016970        3.45835455823188        0.01672501257972
C           -0.40854827346574        4.37419652880693        0.10819855927204
C           -3.28733177298121        1.09933155014856       -1.18534708888279
C           -4.18090362908221        0.05041700989589       -1.15312790545003
C           -4.01814603263627       -1.06394008506128       -0.29913549467884
H           -0.65123979289750        5.37423742495283        0.42205126991544
H           -5.01444122896334        0.07561120913031       -1.83298411125602
C           -4.98063964771899       -2.23856138770243       -0.25248746765667
F           -2.58365161901283       -1.98611762525285        1.35342609791017
N            0.16287113485968        1.82583386359837       -0.60792635532166
N           -2.00360738974770       -0.02340508848452        0.45959215704649
F            2.34766631097878        2.24359010421020       -0.80868421089561
C            2.09651636442617        5.00894415010698        0.02152833578256
C            2.83772556092443        5.15583956841832       -1.31508042371190
C            1.61363985846329        6.39452219861134        0.45850248366699
C            3.04386819690528        4.46236141912720        1.09881590032165
H            2.15872269289731        5.50809110503867       -2.08941975251829
H            3.64269598145824        5.87896116199668       -1.20907237613073
H            3.27164919876621        4.21424127861708       -1.63510267380036
H            2.47243359108063        7.05338234322426        0.56133334969751
H            0.94341614657147        6.83119563558072       -0.27857183667564
H            1.11232629627027        6.34786037551308        1.42182562996057
H            3.85195811656202        5.16889524647808        1.27210323716735
H            2.50525116503387        4.30869069931392        2.03043482806770
H            3.47552449048533        3.51179132999435        0.80516464899383
C           -4.22398763908048       -3.51352474547279       -0.65073634757949
C           -5.54803007585773       -2.37752611310110        1.16783497166439
C           -6.15215646366655       -2.04877978407746       -1.21966864400147
H           -3.41963379040097       -3.73500124227834        0.04282729049331
H           -4.90735633566069       -4.35928100512929       -0.66458037903756
H           -3.78959977864779       -3.39866976582221       -1.64089049661830
H           -4.76722116556787       -2.59189763660240        1.89011312150038
H           -6.05497974717730       -1.46137881750002        1.46525895859486
H           -6.26658167340005       -3.19301395622437        1.19704308399751
H           -5.80502692784116       -1.98679045938264       -2.24788738021164
H           -6.81766578366593       -2.90526520125397       -1.14376805425930
H           -6.72512072879420       -1.15688322381078       -0.97623968975669
C           -2.81864382764750        3.88845304524731        0.40202630207117
H           -3.26703153007220        4.48517290403275       -0.39049970591404
H           -3.45830943542476        3.03513917499761        0.60274032731113
H           -2.77085408777006        4.50773311390858        1.29471953146401
C           -3.49298936908697        2.19077532046496       -2.19284226002219
H           -3.72804847812428        1.74980666843588       -3.15918324886923
H           -4.33095761675510        2.82381556902464       -1.90656375401364
H           -2.60526424691135        2.80584491921596       -2.29797814462160
