75
 energy: -120.462166057700 gnorm: 0.000440653464 xtb: 6.5.1 (b24c23e)
Si           0.45711157050182       -0.78532652418098        0.09914918096735
O            1.59219401644332       -1.92527212901237       -0.02983008410922
C            2.72473172314421       -2.26637129720531        0.72686412779857
C            3.87291150640324       -2.59817302532676       -0.18998760566924
H            3.00010319774524       -1.43028586251322        1.37969696515745
C            3.63850470618820       -3.13951989139795       -1.44631694523306
C            5.18009380543836       -2.39618664471759        0.23319840388111
C            4.69905333927418       -3.46945414218636       -2.27136737126305
H            2.62035056774991       -3.28460235919019       -1.77307020375291
C            6.23930339234926       -2.73426655607841       -0.58978429415296
H            5.36525807838264       -1.96802454939063        1.20832182426469
C            6.00078780390293       -3.27122607557179       -1.84389526435847
H            4.50833120498236       -3.88488445728401       -3.25020313231774
H            7.25349320736156       -2.57316114681940       -0.25389075974719
H            6.82880457918616       -3.53090501089152       -2.48742389583761
C            2.37415001141048       -3.49289271171115        1.59624180340218
C            1.27288991420737       -3.18016505515174        2.48019552173211
H            3.25482518021928       -3.78640330971157        2.17265271923327
H            2.08635338037158       -4.31537251879785        0.93558036495794
C            0.33869853328533       -2.86288073860981        3.15711618090383
H           -0.47338810815101       -2.60421504785861        3.76786508250767
Cl           1.47735089057765        0.38068014097520        1.63620118156541
Cl          -0.68276404617188       -1.97087314410821       -1.29079542684646
O            0.40040747437243        0.49517376416887       -1.05183821847495
O           -0.95234593696617       -0.34974383571524        1.02310756414723
C           -1.16613153939727        2.07272918408941       -0.24562397029829
C           -2.21113129567808        1.08516573454301       -0.35585977927872
C           -3.01553285398895       -1.08147201341859        0.27489961767937
C            1.16576479594688        2.59093718554617       -0.45051511288690
C            1.02287372154850        3.87428744222722        0.00963513094452
C           -1.36734070946827        3.38047081077084        0.22607159553128
C           -0.29910871829616        4.24235793077630        0.35006800837149
C           -3.37327027740463        1.24344355867116       -1.12696207779955
C           -4.31332884944866        0.23629554593837       -1.17100224522679
C           -4.17403081001972       -0.97067691864097       -0.45055598196074
H           -0.48344604454903        5.21938602271769        0.76116305825143
H           -5.16747791400265        0.37126894473103       -1.81122029421864
C           -5.18359482103220       -2.10437058113007       -0.50054188042160
F           -2.72811244878389       -2.12467676557305        1.04124762013740
N            0.12986699719562        1.74293458301678       -0.60209717909760
N           -2.09495584894127       -0.10144677985036        0.34453068867995
F            2.32345575592373        2.08289875051794       -0.85122399548665
C            2.22377637441541        4.78925338491291        0.17893976276424
C            2.90606148870225        4.99698964620910       -1.18103295110586
C            1.81800928267852        6.16027600554066        0.72636840184866
C            3.20032735280256        4.13949058174895        1.16935119522116
H            2.20363453560051        5.41880800614092       -1.89753703288792
H            3.73965016512286        5.68625533237202       -1.07050467069084
H            3.29197931786721        4.06463038319318       -1.58007546506392
H            2.70579845247159        6.78031336277079        0.82421057342544
H            1.12885383999449        6.66592282155514        0.05374904708289
H            1.36408521689884        6.07116592076737        1.71008262576684
H            4.05010913693012        4.79738965732089        1.33487767970287
H            2.70673755005928        3.96003222329691        2.12147155858413
H            3.57036632224940        3.18918260913886        0.79909609126723
C           -4.49050686654144       -3.35409109243604       -1.06062573799117
C           -5.71441673279389       -2.37863377019658        0.91414581861259
C           -6.37301172165090       -1.76358902131481       -1.40214730742296
H           -3.68622316900528       -3.68741200286442       -0.41370069425029
H           -5.21102230639831       -4.16268992206833       -1.15853262265094
H           -4.06500493733851       -3.14120557329953       -2.03805080230931
H           -4.92175340881545       -2.70447859426017        1.57967065542570
H           -6.17219350102688       -1.48219965419602        1.32866968790454
H           -6.46654187070105       -3.16292611500194        0.87738403364318
H           -6.05159366439503       -1.59902512388554       -2.42732299986883
H           -7.06989533279368       -2.59818146446312       -1.40118768189054
H           -6.90312722899705       -0.88446251015424       -1.04259097212566
C           -2.71220637876095        3.82899390625240        0.71471089468833
H           -3.16089826382223        4.52747325575664        0.01062460792331
H           -3.38492918889351        2.98874609047006        0.85251370712263
H           -2.59855072516088        4.34600047637127        1.66489872557019
C           -3.56100179285790        2.44363487009285       -2.00603073646257
H           -3.85912709476630        2.11851253941264       -3.00037083055241
H           -4.35083840120810        3.08421365453568       -1.61760511062799
H           -2.64638658171420        3.02169860962502       -2.08875237224885
