75
 energy: -120.383561389520 gnorm: 0.000700885596 xtb: 6.5.1 (b24c23e)
Si           0.34992709242336       -0.98798840502293        0.76723799635831
O            2.00015089591806       -1.49248548472600        0.20141210742823
C            2.72881703138329       -2.42763123088283        0.61451331818901
C            3.98863913915430       -2.73667001412649        0.02781492118277
H            2.38464482448962       -3.02467909362171        1.46166848747560
C            4.50079805117421       -1.96067920864501       -1.02912995338540
C            4.74077428380864       -3.82714014657857        0.49996074613668
C            5.71903640476340       -2.27181044138520       -1.58915042904675
H            3.91754044919473       -1.12140503125705       -1.37529942677396
C            5.95628752826250       -4.12899249710708       -0.07276371637658
H            4.34992566990808       -4.42138386913600        1.31208325401236
C            6.45015021993772       -3.35581951993343       -1.11711608021287
H            6.11103538461248       -1.67301822599800       -2.39820386739932
H            6.53042425845168       -4.96899633421690        0.28970907235803
H            7.40454505957282       -3.59725821559662       -1.56083480953933
C           -1.57577107447826       -1.72172592528568       -2.66057069522056
C           -1.04257943825056       -2.04704136374470       -1.52129766023864
H           -0.99406201504516       -1.72276183043858       -3.56808827614253
H           -2.61540893732358       -1.44894258867894       -2.75828097946758
C           -0.47928250642087       -2.30845118723592       -0.38936625080281
H           -0.45623744442219       -3.32951661874103       -0.03329620904608
Cl           1.39499157904470        0.57313469767511        1.94023819238885
Cl           0.28826502681043       -2.29652394882891        2.47744349116548
O            0.29868174233327        0.12954066466108       -0.71234213919023
O           -1.20813459761411       -0.14643517345619        1.32192405875424
C           -1.01717905789980        1.99884440654852       -0.30595801059482
C           -2.16380732461161        1.11594659497751       -0.39127100717067
C           -3.14844115315054       -0.90889835052298        0.36416446243729
C            1.34321205533738        2.15549450050971       -0.45645187278834
C            1.36379367293517        3.50614092543442       -0.17537725719815
C           -1.06766964927365        3.36179946594539        0.00076595609403
C            0.10866195087429        4.08398586127882        0.07144910433772
C           -3.22969572750926        1.27125654977218       -1.28226846962933
C           -4.23445743932896        0.32345500209397       -1.31721387464375
C           -4.22736532062660       -0.81331907373205       -0.48468354492346
H            0.04695667145745        5.12240168421615        0.34739187662027
H           -5.02885642773287        0.45343260985860       -2.03160347824684
C           -5.30831270181411       -1.88171572424893       -0.50537784383312
F           -3.00434380664069       -1.89821705485547        1.23498148775054
N            0.21271963893199        1.43564238319582       -0.52003690253403
N           -2.17598462849704        0.01687719117269        0.43424282292420
F            2.42885115216472        1.46777016511249       -0.78174957074708
C            2.67381695414554        4.27008965649541       -0.09061624686691
C            3.38815948798725        4.21710442265297       -1.44911273666159
C            2.44955309748761        5.73973060404557        0.27575672829456
C            3.54520806039042        3.62555131411455        0.99604507546726
H            2.75380863866631        4.63531854860490       -2.22876871886634
H            4.30461853464776        4.80031104823230       -1.40257597649122
H            3.65070492145561        3.20024665525042       -1.72181399795268
H            3.41143695653778        6.24449907970943        0.32327263910210
H            1.84244730676055        6.24632182705856       -0.47144250589092
H            1.97684569663715        5.83187162641036        1.25017441437099
H            4.46875035967541        4.18802601911467        1.11055440388302
H            3.01683323948013        3.61947393100636        1.94591194781590
H            3.79569128045479        2.59916489491215        0.75056107656368
C           -4.67576298754472       -3.24958745061826       -0.79969100238978
C           -6.00506134808918       -1.90908677997229        0.86314385385249
C           -6.36247294525327       -1.59878344123655       -1.57946350650280
H           -3.98779711346517       -3.54953930956734       -0.01658151053121
H           -5.45542538165849       -4.00405391235472       -0.87222194983520
H           -4.13088728832347       -3.22363138034517       -1.74038306371449
H           -5.31123783950118       -2.17239879709270        1.65521575298933
H           -6.43746607653099       -0.93600222486597        1.08833717799091
H           -6.80351251098852       -2.64692710105383        0.85368512508541
H           -5.91755472744724       -1.58192687372301       -2.57156319139611
H           -7.10843389165757       -2.38951168364839       -1.56203591038371
H           -6.87197534231789       -0.65574144067234       -1.39581928845557
C           -2.36153832671654        4.03373892212277        0.34726897652316
H           -2.67702237045186        4.69761757285415       -0.45618555632579
H           -3.14565669125179        3.30623374791653        0.53177851856419
H           -2.22786913089368        4.63749186704804        1.24203318384916
C           -3.26077767353370        2.40151958235775       -2.26605429198819
H           -3.55846589816231        2.02748726572379       -3.24303826188581
H           -3.98962394016226        3.15152675338583       -1.96311392674346
H           -2.28754358267993        2.87397691168306       -2.35355226193100
