75
 energy: -120.461530892120 gnorm: 0.000703278750 xtb: 6.5.1 (b24c23e)
Si           0.53329142443144       -0.69155884958511        0.28325185464425
O            1.95349640052569       -1.38221307388216       -0.12641288269675
C            2.38816857660831       -2.70674397637118       -0.04010412720420
C            3.74941407847809       -2.83181198622824       -0.67504803522330
H            1.66737240301644       -3.35733948767763       -0.55824894235581
C            4.62373358190903       -1.75396429281098       -0.67128117418317
C            4.15604067687405       -4.03947524203495       -1.22651409148232
C            5.88838192234229       -1.88226341915248       -1.21739789708651
H            4.29446090588663       -0.81686001930820       -0.24998948705530
C            5.42331399416675       -4.16749008994056       -1.76649237259010
H            3.47533182677032       -4.87942423906762       -1.23525892493733
C            6.29214407054294       -3.08912895640872       -1.76256030831344
H            6.56206240893201       -1.03766442478051       -1.21509677991204
H            5.73244356575527       -5.11011177881049       -2.19455730092899
H            7.28061843497640       -3.18974492658430       -2.18684360348232
C            2.47707490203360       -3.14836268617276        1.43846559418409
C            1.16267145678583       -3.18026515429454        2.03724100611750
H            2.93962207941660       -4.13700674532173        1.48899089361378
H            3.10405467099668       -2.42902673538074        1.97240191899334
C            0.04884535490973       -3.16675910254426        2.47611471650114
H           -0.92173860188416       -3.16361482747357        2.87322766573266
Cl           1.39993747462359        0.30875777161551        1.94299078773210
Cl          -0.63350421338536       -2.14233196397157       -0.79529072263795
O            0.45297710791188        0.51266697553684       -0.93122420375004
O           -0.96777114855391       -0.11397325731020        1.10625592487463
C           -1.15815375165962        2.15202268505023       -0.35803599296746
C           -2.18957856149888        1.15279289842857       -0.44382964152067
C           -3.02506688717049       -0.91693068274702        0.41062524831812
C            1.19505037017574        2.60879541483675       -0.30750894145475
C            1.03117041685522        3.92251037289586        0.04550976882000
C           -1.38173184617346        3.49875202821387       -0.02507955016202
C           -0.31333182762993        4.34697127757128        0.16690707908119
C           -3.31339349138221        1.21300144707774       -1.28471206981554
C           -4.25581983046723        0.20934015998267       -1.24297321856387
C           -4.16033149914004       -0.88968867659186       -0.36117665115197
H           -0.51926993216255        5.35930698395551        0.46719747658615
H           -5.08208055235140        0.26293588832328       -1.93031868527879
C           -5.19358290545115       -2.00043896258298       -0.28162391582627
F           -2.78472586785002       -1.85478257521112        1.31802563702320
N            0.16182923179892        1.77480980646516       -0.54022663198282
N           -2.08598244779074        0.04403477068367        0.37375281361061
F            2.38080198177836        2.05282596693053       -0.51374354521407
C            2.22674218302980        4.81650675476051        0.32797493813939
C            3.09926985295193        4.92077478406327       -0.93136555845118
C            1.79500635035753        6.22912155249469        0.73080103362390
C            3.03259107851664        4.20705589888861        1.48406365233947
H            2.51856138126000        5.31486046097150       -1.76330064900593
H            3.93256571073345        5.59373891096052       -0.74457577177269
H            3.50410286779649        3.95540840670129       -1.21672190375301
H            2.68082079750104        6.83026786465280        0.92094406699460
H            1.22800838647740        6.71047177202689       -0.06273502086153
H            1.20148575368216        6.21306916096385        1.64141610894284
H            3.87661762823311        4.84949416691166        1.72328260755339
H            2.40748145682537        4.10914439990529        2.36840215822290
H            3.41240543140747        3.22268457549690        1.23198879340073
C           -4.52065183711383       -3.33010029063051       -0.64966105245238
C           -5.76100505449698       -2.06738265324013        1.14403794172176
C           -6.35653024699456       -1.76240709929562       -1.24846003040791
H           -3.72129093118023       -3.57845605088595        0.04033630317503
H           -5.25388827199042       -4.13282426883822       -0.62909458703798
H           -4.09404833233918       -3.27152856514816       -1.64803149860919
H           -4.99205286880002       -2.31493208861895        1.86834413464815
H           -6.20544015092148       -1.11298459784556        1.42055290100622
H           -6.53105692567190       -2.83314842933636        1.19636558206672
H           -6.01260108001531       -1.74766463593890       -2.27954577865159
H           -7.07336029079129       -2.57377327186818       -1.14808931649705
H           -6.87151234128829       -0.83072481974626       -1.02506999061057
C           -2.76399742241461        4.01178719510396        0.24760750220430
H           -3.12115872622434        4.60999289445226       -0.58884750314430
H           -3.46150698831405        3.19838570193125        0.41908700001638
H           -2.74777478064063        4.65090057601842        1.12726506548725
C           -3.44654453800973        2.29405753265121       -2.31517231781659
H           -3.66640843946413        1.84433054494404       -3.28125434659297
H           -4.26818357759783        2.96427807912846       -2.06921569546496
H           -2.53147502845565        2.87104422304249       -2.40097845646891
