75
 energy: -120.467172631872 gnorm: 0.000413179931 xtb: 6.5.1 (b24c23e)
Si           0.31226183968004       -1.22421897641128       -0.17695168347580
O            1.75382245501174       -0.52718597711847        0.10635987778365
C            2.92751459185201       -0.94062233323125        0.77250315833902
C            3.37806587629619       -2.30047355938503        0.29120072898621
H            3.68160043589250       -0.20201062811254        0.45317794035456
C            3.41563699868682       -2.50417822238609       -1.08399271275031
C            3.74917656641244       -3.33614839375375        1.13515315219765
C            3.79845455431149       -3.72382368858282       -1.60759996208854
H            3.12283574091106       -1.69885958644465       -1.74179417680764
C            4.14156483930180       -4.55516440674812        0.60879573577450
H            3.72025828809587       -3.21410927391285        2.20581379929697
C            4.16473347790359       -4.75483030096806       -0.75957959053796
H            3.80819039308641       -3.86877088589775       -2.67764684477311
H            4.42049472448815       -5.35708988226488        1.27652693448254
H            4.46213076541217       -5.71118133102223       -1.16416715463158
C            2.74349650158729       -0.81046358634891        2.29128029361752
C            2.30397552772466        0.52816131766838        2.61730025956066
H            3.69314120970683       -1.01267971382831        2.79171600208004
H            1.98828814655968       -1.52691750515159        2.62057147832559
C            1.93656145181942        1.64729502849844        2.82971071926191
H            1.61054530411277        2.61778708217891        3.05506325992269
Cl          -0.21672583647757       -2.29760068381746       -1.83776575120613
Cl           0.47734771117182       -2.91269902514435        1.11663949505549
O           -0.90486524243150       -0.60560401152843        0.88055885748442
O           -0.04611552861674        0.25295518419966       -1.28652090387222
C           -2.05803578160453        1.32988975832179        0.10468248134124
C           -0.80739713182718        2.02394743624850        0.03581369454128
C            1.38394128376810        2.02576456673927       -0.89496641799685
C           -3.13326177442652       -0.80461207272731        0.30432653688158
C           -4.37579725271844       -0.31870964447484       -0.00115017555507
C           -3.31174332729911        1.87756883402568       -0.22477940336996
C           -4.42877430619728        1.07499238674580       -0.25482285028773
C           -0.49471483410473        3.23130066408421        0.68830300411170
C            0.74445120705072        3.80019974889336        0.50870075921278
C            1.73338005063053        3.22424960019502       -0.31632073071335
H           -5.36540503444354        1.52080834020261       -0.53955536245404
H            0.96708831589952        4.70801188957944        1.04292152716109
C            3.10697744238944        3.83766814903402       -0.53311582972292
F            2.19289927125494        1.36559798013390       -1.71595763060966
N           -2.03632481157172       -0.02377881577981        0.40841353258591
N            0.18702950278109        1.44524823788587       -0.72699442052799
F           -2.89733581415168       -2.08520957847960        0.56077588002930
C           -5.58432598862107       -1.23660761633802       -0.08776638697152
C           -5.80419091331208       -1.91145278815844        1.27423897853006
C           -6.85575309942148       -0.46469841351816       -0.45161556692838
C           -5.33591109150487       -2.29810478954883       -1.16901702470674
H           -5.94496756513066       -1.16126575383340        2.05011982782434
H           -6.69304633603381       -2.53636223140141        1.23476053725381
H           -4.96293165197048       -2.54014678004681        1.54766049801187
H           -7.69305913347571       -1.15737180284327       -0.48854112327937
H           -7.08270232476436        0.29477761878344        0.29303489065505
H           -6.76634011070513        0.00258444492502       -1.42930073105515
H           -6.21353954444128       -2.93228191242060       -1.26884736222136
H           -5.14220277078070       -1.82253332282521       -2.12820863867994
H           -4.48891179435185       -2.93019752479074       -0.92225334149215
C            4.18094059365468        2.84235903513080       -0.06984414855117
C            3.29028907472307        4.15934846390361       -2.02348043886481
C            3.28049676120356        5.13382057267678        0.26348300390996
H            4.20064586188121        1.96053915079458       -0.70236104760412
H            5.16164459855245        3.31037679574583       -0.11377237109452
H            3.98743623565099        2.53004861416967        0.95488500300023
H            3.23544136142338        3.26312929272751       -2.63332113822557
H            2.52284509924893        4.85468498271745       -2.35816591029483
H            4.26329136957880        4.61758785498055       -2.18331270325246
H            3.20018568665951        4.95013896846841        1.33201808804953
H            4.27011972963023        5.54044448215954        0.06960011168734
H            2.54892708014334        5.88208184055790       -0.03278389960390
C           -1.44419389104461        3.84401495877979        1.67399573158205
H           -1.88223771995091        4.75851736146582        1.27809371203601
H           -2.23953274504086        3.15225644129637        1.93230108386457
H           -0.90558503797007        4.10747366354467        2.58200078344648
C           -3.44329302065960        3.30437104794700       -0.66736545399556
H           -4.12724724385036        3.35982475597075       -1.51119205425362
H           -3.85478766611728        3.91975482311454        0.13063166477205
H           -2.48425060112956        3.71350064475198       -0.96857808055265
