75
 energy: -120.456568136207 gnorm: 0.000709317316 xtb: 6.5.1 (b24c23e)
Si           0.30160283020783       -1.20509576025167        0.51342798984199
O            1.68787457497805       -1.87275762352532       -0.06231666228256
C            3.02069671665477       -1.44233732740866       -0.01700003038978
C            3.90668109400609       -2.53210652315521       -0.57025995098829
H            3.11226810269631       -0.53981042628682       -0.63497148564973
C            3.62697022883246       -3.86291022888969       -0.29287697055620
C            5.03166767451060       -2.21438918660559       -1.31866555336892
C            4.46022562458374       -4.86274481777236       -0.76106891689565
H            2.74476646990483       -4.10261919327008        0.28067992431516
C            5.86789019349471       -3.21477082032388       -1.78157199390638
H            5.25156938252707       -1.17918967569296       -1.53993652349700
C            5.58413425723654       -4.54092514581645       -1.50296098171897
H            4.23375846246146       -5.89638748987393       -0.54384448670248
H            6.74153114950485       -2.95906584647313       -2.36372367250280
H            6.23691670060418       -5.32144720825038       -1.86585402593794
C            3.50480138410547       -1.11727969457533        1.41478247651126
C            2.88123159663803        0.06046784175341        1.97237449297023
H            4.58833403319277       -0.97193600930445        1.38135567115475
H            3.27682642815299       -1.97188251059576        2.05661850589083
C            2.35631376930211        1.03299513760371        2.43355207396585
H            1.89112060223948        1.87120401261258        2.86000724255991
Cl          -0.86881567024731       -2.33011319649087       -0.75193552660116
Cl           0.50206938877471       -1.85900664758014        2.47166313810302
O           -1.16609954801675       -0.32485442461026        1.25912181698156
O            0.59901065355079        0.25605857111550       -0.40716230683686
C           -2.10880410910857        1.16049311712916       -0.28383598974404
C           -0.99377547544642        2.03729974592312       -0.07822585215843
C            1.36909022950281        2.40013861872991       -0.13203925856125
C           -3.22103437443503       -0.84025297924602        0.37697677970809
C           -4.29887083536337       -0.63289046318493       -0.45295254529351
C           -3.16616770546043        1.40755100598099       -1.18230526165616
C           -4.21587736475323        0.52073224381583       -1.25786574132443
C           -1.13945685381825        3.40985567781252        0.21784563241788
C           -0.03859134490592        4.22285193099314        0.32543032274663
C            1.27812392605507        3.74610300051253        0.09011904033167
H           -4.98663902055460        0.71268918262422       -1.98428287326590
H           -0.18795381169098        5.25152575905540        0.60155843586752
C            2.50582223118679        4.64344647939593        0.08045062075658
F            2.52648462231162        1.80025042975171       -0.40405271289263
N           -2.18305882611249        0.00661274828045        0.45833931656304
N            0.30905458854602        1.55597591840133       -0.15359653372258
F           -3.14250496869718       -1.86120890081308        1.21746122578550
C           -5.44789099088376       -1.62398276849184       -0.51174821263321
C           -6.09850575168105       -1.73583789346784        0.87497395124651
C           -6.52247368045296       -1.18559049416116       -1.51052368464397
C           -4.89920685904360       -2.98806768129108       -0.95276374767538
H           -6.44907683911794       -0.76112235035703        1.20959433893641
H           -6.95084876036188       -2.40894493442181        0.82575978026174
H           -5.40378338671620       -2.12733792436519        1.61056073396393
H           -7.32935850273297       -1.91427857386106       -1.50627316897109
H           -6.94237716639714       -0.21921475500695       -1.24016669515594
H           -6.12350712178720       -1.13724290007062       -2.52055381986841
H           -5.71377840830194       -3.70384866034986       -1.03223199266123
H           -4.41235817389370       -2.90259266288866       -1.92116181114127
H           -4.17140752336330       -3.37256994775311       -0.24625728084805
C            3.48699785385011        4.18975093799517        1.17035446285915
C            3.17797043544933        4.56317958110245       -1.29841852619416
C            2.13672120210343        6.10594627203277        0.34535311798004
H            3.79237629552577        3.15702087205589        1.03270695252583
H            4.37660140199649        4.81446232108345        1.14613732056212
H            3.03006013133404        4.28609587324600        2.15283187573356
H            3.54931596214111        3.56441679971694       -1.50334718703708
H            2.47293968963234        4.84014668770140       -2.07981288831796
H            4.02011989728500        5.24984541228284       -1.33647971230222
H            1.68685901333229        6.22835603799413        1.32758169382198
H            3.03971575544633        6.71081273867337        0.31600766620761
H            1.45492529524829        6.48350257262261       -0.41296010434945
C           -2.48540854163735        3.99122003146135        0.53806069779484
H           -2.80385968690381        4.68119096324758       -0.24079705989807
H           -3.23886537819379        3.21952067959199        0.65545595985197
H           -2.41803909243055        4.55486871682343        1.46662136081957
C           -3.11329581087460        2.54768964373286       -2.15493351205830
H           -3.32272699341169        2.17407011023739       -3.15529798260503
H           -3.86929576708401        3.29414818044398       -1.91856768912873
H           -2.13763450523149        3.02257079294608       -2.15892668708976
