75
 energy: -120.465251894401 gnorm: 0.000514906002 xtb: 6.5.1 (b24c23e)
Si           0.18209748682738        1.26725209759000       -0.75346598231049
O           -0.87509314855206        1.76246056872886        0.35861241905819
C           -1.89841638015232        2.72522441198504        0.31302887067250
C           -3.11853004788645        2.17218272457885        1.00355024043929
H           -2.12860418171552        2.96573583959209       -0.73202589604194
C           -2.97545801742009        1.34209202610284        2.10765684915224
C           -4.39186612964614        2.50836314769608        0.56458956754755
C           -4.09166816609389        0.85864083253131        2.76651937401255
H           -1.98179606633549        1.07305049056147        2.43259451245966
C           -5.50740107379286        2.02541383951261        1.22605365923585
H           -4.50590667694034        3.14662632049325       -0.29955699063051
C           -5.35993881267372        1.20175494790950        2.32937627051446
H           -3.97237034303945        0.21547361881944        3.62694959740956
H           -6.49492129593116        2.29070564836658        0.87781519163577
H           -6.23148751823123        0.82528251083299        2.84467651858099
C           -1.42352967633254        4.00509340076954        1.03010369841519
C           -0.30951264410827        4.60049224608530        0.32464968845694
H           -2.25558660112131        4.71214471635134        1.08109509607018
H           -1.11439885073822        3.74134184663510        2.04499260387760
C            0.61754141832050        5.04914702370343       -0.28386157006205
H            1.43047227780403        5.44652252030369       -0.81379884030008
Cl          -0.63082031594711        2.22947572302801       -2.48256150200534
Cl           2.08983609269679        1.95679191656857       -1.16020132807187
O            0.83909415387982        0.27120669174404        0.70086333968629
O           -0.12108007855072       -0.23419448580125       -1.54073570133180
C            1.72580848453644       -1.73391206481396       -0.13760454119208
C            0.37857479735728       -2.19391020958751       -0.29271684949772
C           -1.87617948478202       -1.54175171308289       -0.79087328964135
C            3.12025416087010       -0.02904026616449        0.77149324188321
C            4.28931889407055       -0.68648589682038        0.46323496581617
C            2.88829199488402       -2.41776487266925       -0.54105799578698
C            4.12561930618758       -1.88934161911797       -0.25339415493936
C           -0.12839894303615       -3.41524552502843        0.18876855074327
C           -1.48215982637788       -3.66029106596732        0.14866540639479
C           -2.42071945440619       -2.70687050613824       -0.32333946124326
H            4.99521216163826       -2.41588872879777       -0.60681168886863
H           -1.83989606894301       -4.59184171090481        0.55037736254279
C           -3.92483041942774       -2.92643696740148       -0.30603588461198
F           -2.60304635171671       -0.53751399472246       -1.26974977574099
N            1.90199590747865       -0.50043412850843        0.45936005096122
N           -0.54624423592569       -1.31909186581336       -0.84214854455889
F            3.09006928827482        1.09879995159906        1.46905599298417
C            5.64183489664720       -0.09918993898543        0.82855441319936
C            5.73727752339502        0.06004717561792        2.35301657116242
C            6.79224977469552       -0.99915220065620        0.36917849657395
C            5.78807617258735        1.26586542787862        0.14166329755415
H            5.58942227722954       -0.89974900276705        2.84481091454570
H            6.72220803765945        0.43478173514948        2.62057991731777
H            4.99846216608426        0.76076193775383        2.72738354430793
H            7.73608797788584       -0.54676768012512        0.66368659843641
H            6.73319833616127       -1.98247110987516        0.83058911924152
H            6.79889565834535       -1.10691206704675       -0.71249985142329
H            6.76312967356057        1.68998169578827        0.36883065205863
H            5.69752573566193        1.15568997813789       -0.93623748501526
H            5.02480225688558        1.96249051615886        0.47164881083121
C           -4.58657692493631       -1.83964297996347        0.55260919763844
C           -4.45905790972183       -2.85943252890959       -1.74428396221553
C           -4.29139111432217       -4.29284734500281        0.27983857943227
H           -4.42651680713714       -0.84761156790321        0.14274003882455
H           -5.65875783783495       -2.01258113226956        0.60381929356646
H           -4.18589458967580       -1.85958587157546        1.56356592071830
H           -4.29477797171038       -1.88082656829273       -2.18385540799909
H           -3.96902872787307       -3.60676528995091       -2.36536113344059
H           -5.52838432807756       -3.05590099166770       -1.74843303238318
H           -3.95640803789188       -4.38142617149001        1.31040009914580
H           -5.37283045832149       -4.40441935487989        0.26971995275076
H           -3.86648040321671       -5.10194098333605       -0.30942320800075
C            0.76338795598145       -4.41739381348129        0.85838906612205
H            1.68796498406149       -3.95883307990485        1.19395065541796
H            0.25118748052759       -4.84442059591977        1.71736708839016
H            1.00313086378340       -5.23303272145447        0.17863506326181
C            2.79921174219269       -3.64824829287979       -1.39346327433319
H            3.45012952703042       -3.53093211956159       -2.25764004318244
H            3.13349527197725       -4.52874070196730       -0.84800450599608
H            1.78490418328894       -3.80950579735833       -1.74379845823692
