75
 energy: -120.465715731758 gnorm: 0.000821790004 xtb: 6.5.1 (b24c23e)
Si          -0.23610373808475        0.87534164293131        1.33649581040617
O            0.16017650203906        2.21060619263281        0.52610719700805
C           -0.06711865950514        2.67568840922892       -0.78216947261346
C           -0.60116313563889        4.08655745156519       -0.72870406276411
H           -0.78611251499107        2.02315037771905       -1.28613563310180
C           -0.30939700278913        4.91295807519759        0.34707577596624
C           -1.36696178386702        4.57649089499231       -1.77895482404174
C           -0.77982883242967        6.21422203164217        0.37173870362730
H            0.27233082884984        4.52196380924165        1.16725321035539
C           -1.83135571145289        5.87910312213525       -1.75481370047747
H           -1.60335528187768        3.93168077173286       -2.61405137689266
C           -1.53746812370434        6.70105858126012       -0.67948812950449
H           -0.55240040268268        6.84969371671838        1.21478765367652
H           -2.42919385133481        6.25213485440250       -2.57377140777347
H           -1.90363778383625        7.71715557690792       -0.66005380761369
C            1.26940012020154        2.65530760602035       -1.55567789792736
C            1.61672851054531        1.32028617868652       -1.98448870675015
H            1.18571414799520        3.30498292821016       -2.43101187094641
H            2.04671925104969        3.04805703384449       -0.89522535320778
C            1.87111467399683        0.20857284419281       -2.34740165927276
H            2.09315090272577       -0.76384770495737       -2.67164182234710
Cl          -2.13264842844461        0.39866464233103        2.02955019859313
Cl           0.40088155869507        1.71507013703902        3.14738959646732
O           -0.63823615445202        0.01129437099359       -0.33114194769750
O            0.84348928495874       -0.42213878914651        1.62426018169401
C           -0.49795145225721       -2.30438113985639        0.03302108878351
C            0.92765642096276       -2.18710597096986        0.01314251007058
C            2.82113824408010       -0.79546999395098        0.50171842661628
C           -2.57185843213268       -1.21535857691986       -0.40299632652146
C           -3.32451844152434       -2.35204716060622       -0.22066566432498
C           -1.22536520845897       -3.47537866913108        0.32858132429586
C           -2.59526378322427       -3.48016242385158        0.20518304757927
C            1.79399410905933       -3.01867227504553       -0.72502845154162
C            3.13693178190820       -2.72692385896385       -0.79631778352059
C            3.70327215870815       -1.57187466339014       -0.19802419214559
H           -3.12261883854624       -4.38033313813776        0.46986410101599
H            3.76399605516710       -3.37125693032846       -1.38758812888046
C            5.16781845399818       -1.18768749871043       -0.33093051578972
F            3.17176184903723        0.32954189882514        1.11465982653195
N           -1.23765475252347       -1.17604192148646       -0.25918850389606
N            1.51968251568491       -1.11627245706533        0.66814191827325
F           -3.09081832129078       -0.05646371783220       -0.79641511250232
C           -4.83252212575811       -2.33798166992104       -0.39847738691501
C           -5.17465949939577       -1.92723017464856       -1.83821030269668
C           -5.44441089409478       -3.71668948202479       -0.13601876258377
C           -5.43864465950473       -1.33830657567042        0.59646174901910
H           -4.71538898611108       -2.61270928902995       -2.54827186110124
H           -6.25214345103556       -1.95614766405528       -1.98073371297993
H           -4.83471478084917       -0.92019161531318       -2.05668404172574
H           -6.51767568269579       -3.66693579257619       -0.30275719817571
H           -5.03425173244344       -4.46557287002648       -0.81003926252335
H           -5.28227982428654       -4.02825359530308        0.89269475089140
H           -6.52282481354898       -1.34811759775160        0.51431553051795
H           -5.16257035849559       -1.60508327393403        1.61370576735851
H           -5.08990837992096       -0.32821039828697        0.40913459662628
C            5.27789729004943        0.19759312055636       -0.98389079920541
C            5.80414191356259       -1.16239578761511        1.06669921863402
C            5.94011110994657       -2.18985734898132       -1.19343707955175
H            4.84917360576250        0.96921165654160       -0.35321514540035
H            6.32416798676881        0.44103971302530       -1.15228528255833
H            4.75921504125828        0.21163192371332       -1.94004154053666
H            5.33182299042686       -0.42180436405549        1.70440899271546
H            5.71356236930748       -2.13737002654680        1.54162067537562
H            6.85990309514921       -0.91547101234329        0.98597449549771
H            5.54566393871909       -2.22361532423052       -2.20622512668818
H            6.98083128457615       -1.88059557678797       -1.25151336754144
H            5.91264938149241       -3.18711867902019       -0.76068052304203
C           -0.54613407908775       -4.67806426233327        0.91313040680664
H           -0.58650018332571       -5.52449756779236        0.23017540987095
H            0.48879065043534       -4.46544309948321        1.15997006577145
H           -1.06536909787589       -4.96791330238296        1.82484060490854
C            1.26953516066014       -4.15901221377325       -1.54686755500061
H            1.79613205200037       -4.19586083496023       -2.49817045731365
H            1.44015049005556       -5.10825301739636       -1.04270752915029
H            0.20672845365802       -4.05170925569328       -1.73937254821723
