75
 energy: -120.465662440739 gnorm: 0.000153070891 xtb: 6.5.1 (b24c23e)
Si           0.68305356892308       -0.58731475045535        1.31515783490690
O            1.13398451084330       -1.91717701975378        0.52432424609662
C            1.65946446025988       -2.16764748166386       -0.75678731842589
C            2.92384945084059       -2.98309206004424       -0.63711289468661
H            1.87779035097926       -1.21957605901880       -1.25688214645795
C            3.15249982670039       -3.78209556682116        0.47379477472487
C            3.86226070483769       -2.95138373795950       -1.66109371751871
C            4.30890747418611       -4.53775039076554        0.56004193324584
H            2.42789393531387       -3.79142171495602        1.27317645883351
C            5.01428798512994       -3.71163013102544       -1.57539031988676
H            3.68996147936283       -2.32310396981050       -2.52408033503709
C            5.23980086997837       -4.50671991617106       -0.46385155736182
H            4.48286069395033       -5.15193133779430        1.43115571376937
H            5.74064478430313       -3.67917576615396       -2.37457343364585
H            6.14229355653427       -5.09640994999101       -0.39546978577102
C            0.60564880475095       -2.94261608552957       -1.57722280359569
C           -0.43596496187917       -2.06396189900204       -2.05717313101157
H            1.09495861132989       -3.42257334316613       -2.42884473406547
H            0.17560857759023       -3.71388741021875       -0.93323085507265
C           -1.27095200546853       -1.30435083601400       -2.45515318276338
H           -2.00508057666528       -0.64672556547671       -2.81375794164894
Cl           1.95436844868416        0.86967247619975        2.06620471689585
Cl           0.53556189441344       -1.64100273475627        3.12060964850124
O            0.61499206751503        0.35255807323450       -0.36126664102399
O           -0.94980919241433       -0.11464251206682        1.52191871194702
C           -0.82308467340211        2.18521899834326       -0.07871311026296
C           -1.92977095034944        1.28130991068996       -0.15443933909342
C           -2.74569612195810       -0.92424534599592        0.32602421939840
C            1.52464763061993        2.45624788052325       -0.38141589342585
C            1.49409093045955        3.81925137462542       -0.19869001231051
C           -0.90223942616348        3.56355355404931        0.20524522128575
C            0.23182270888621        4.34016235694035        0.14948007890185
C           -3.06874145291679        1.47135458913390       -0.96236547935793
C           -4.01342087709306        0.47654273847734       -1.06968273675507
C           -3.87269806329714       -0.78539805429486       -0.43657580185949
H            0.14334857125032        5.38174697360416        0.40583736243912
H           -4.85805070875989        0.64808864368712       -1.71403606393697
C           -4.86910958261932       -1.92211596220659       -0.59631947002472
F           -2.44274377747199       -2.04133583394869        0.97698603679233
N            0.43881529250893        1.67120627414644       -0.29843747136085
N           -1.85362625324196        0.07139435520936        0.52103072141360
F            2.62702630851702        1.79323003582554       -0.71648308116268
C            2.75626886718369        4.65759391776938       -0.29899476874196
C            3.35122775369119        4.52019936384193       -1.70812424594017
C            2.47144408476030        6.13974148813024       -0.04158866296810
C            3.76161676136442        4.16588532852803        0.75181643228599
H            2.62736725771756        4.83381912462359       -2.45824450248770
H            4.23239214176559        5.15093869206535       -1.79639820242977
H            3.64851997315060        3.49774324852621       -1.91710890283654
H            3.39576139118620        6.70253715743532       -0.14660361015235
H            1.75480293146352        6.53474874219193       -0.75829485156630
H            2.09899918625529        6.29804611513663        0.96729882801827
H            4.65600013382340        4.78354821560852        0.72332542755503
H            3.32644443544415        4.22642518963500        1.74636293967502
H            4.05131720154612        3.13536118246311        0.57574064413307
C           -4.16050881531246       -3.14927175857297       -1.18730122837057
C           -5.45443914747652       -2.26634575109553        0.78136845744592
C           -6.02283101873667       -1.53728147899363       -1.52672976066687
H           -3.40290866124716       -3.53402200954494       -0.51281004049998
H           -4.88572584439842       -3.93920345709476       -1.36737186098863
H           -3.68052732890220       -2.89643334407425       -2.13019940755265
H           -4.68421778715550       -2.60899763160954        1.46516281661237
H           -5.94041490704043       -1.39445361005123        1.21497759156010
H           -6.19333257291859       -3.05752688111124        0.68013226939603
H           -5.66300204691441       -1.31275603750844       -2.52804681024511
H           -6.71347210476966       -2.37374033752798       -1.60102588082141
H           -6.57411521871591       -0.68331412458687       -1.14015367240106
C           -2.17667559024416        4.17588544757679        0.70528353917575
H           -2.57972674831703        4.88741704055560       -0.01294138192221
H           -2.92317381884691        3.41684903390722        0.91491296960057
H           -1.97026258037903        4.72017335873909        1.62499935240217
C           -3.22326811239333        2.69511020194715       -1.81634354553982
H           -3.61826002652440        2.41297021592349       -2.79003297250914
H           -3.92821047509439        3.39241301771276       -1.36785141426836
H           -2.27334718892034        3.20090653981136       -1.95781896657738
