75
 energy: -120.465257009728 gnorm: 0.000566877153 xtb: 6.5.1 (b24c23e)
Si           0.23741348625198       -1.23367407213582        0.82353083061895
O           -0.84800294555574       -1.82341660455492       -0.21225989670334
C           -1.83254029772760       -2.81699413240532       -0.07220318321887
C           -3.09291346144069       -2.35116838318716       -0.75465464923202
H           -2.02043612238244       -2.99899742077510        0.99297062916098
C           -3.01334416465317       -1.60502716860939       -1.92330198992964
C           -4.33935818769141       -2.68530178497768       -0.24316058200661
C           -4.16583637126340       -1.20349307339391       -2.57456255677931
H           -2.04006832391711       -1.33542112886313       -2.30462862855061
C           -5.49134095282364       -2.28430954314133       -0.89698478902236
H           -4.40363251499257       -3.25733915662498        0.67105129372227
C           -5.40717939535462       -1.54521865032342       -2.06493920916924
H           -4.09626466817812       -0.62584964048132       -3.48544422311489
H           -6.45773894075378       -2.54725806905167       -0.49228074045388
H           -6.30706850368262       -1.23306217378339       -2.57448110888164
C           -1.33314441141413       -4.12138524352195       -0.72555307365190
C           -0.18044789914465       -4.63750546301587       -0.01974859468181
H           -2.14136749318490       -4.85724722931637       -0.71091413294050
H           -1.06085085335572       -3.90841540073120       -1.76271349101401
C            0.77868303104638       -5.01961251894301        0.58445981663744
H            1.61848467418661       -5.36183824632869        1.11101104731662
Cl          -0.49447373281046       -2.08883021770003        2.64165689331843
Cl           2.17468036621874       -1.84697361763010        1.20845487488119
O            0.81859728164067       -0.32769941690460       -0.72439757520318
O           -0.06366385907518        0.31578956074106        1.51286969660436
C            1.69081635438801        1.74954698617226       -0.06328650175285
C            0.34029162714413        2.19161937944485        0.11252623332181
C           -1.87921179998081        1.51645049189160        0.72636185737264
C            3.08710245147640        0.00979257509672       -0.90140646149755
C            4.25278572503852        0.70897670810807       -0.68682876224771
C            2.85319773927893        2.48203024912896        0.24445256742442
C            4.08988017220668        1.95755233032514       -0.05308272391366
C           -0.21520842927001        3.36423401895105       -0.43315890999636
C           -1.57352102730741        3.57537747734927       -0.36617769632836
C           -2.47032552426984        2.63100697645953        0.19638926459203
H            4.96031375002700        2.52516891054831        0.22725635401892
H           -1.96960799924337        4.46796604495425       -0.81733901664786
C           -3.98045737493227        2.80525455824331        0.20438561979017
F           -2.56279619983878        0.52831471781482        1.29409566609740
N            1.87156374582668        0.47975130906208       -0.57751754918921
N           -0.54255050576321        1.33528394068976        0.75350128260606
F            3.05487763181799       -1.16644983212378       -1.51431158476845
C            5.60251627006024        0.12192146237247       -1.06202356526876
C            5.64334339285017       -0.14299699023873       -2.57418864247431
C            6.74981531255937        1.07347345688662       -0.71186103651748
C            5.80346092596346       -1.18832801458297       -0.28779210501862
H            5.45871486079108        0.77716099847755       -3.12567411101050
H            6.62429431229272       -0.51967626064041       -2.85325019232246
H            4.90423058271240       -0.88029896082221       -2.86938024912482
H            7.69112846708584        0.62050627992285       -1.01310385479345
H            6.65093292313014        2.02149256896136       -1.23593292644672
H            6.79600249583374        1.25511540209102        0.35887057135166
H            6.77735494437946       -1.60998733507249       -0.52416553940112
H            5.75308078943617       -1.00382963052783        0.78250812614841
H            5.04243385737365       -1.92014019663868       -0.53686046882993
C           -4.62792161818721        1.64456357848798       -0.56381024466489
C           -4.47860889524783        2.81825742138808        1.65700493015266
C           -4.40260370673135        4.11840303448132       -0.46045210505480
H           -4.43221931401229        0.68810593114999       -0.08980775797229
H           -5.70536428931558        1.78478073421301       -0.60462548768035
H           -4.24692313938240        1.60496155680944       -1.58186542146234
H           -4.26978250746619        1.87810379605464        2.15740533803600
H           -4.00122579224839        3.62238728221998        2.21365931452828
H           -5.55390777681020        2.97807564679427        1.67487477467117
H           -4.09581052366711        4.14773313604079       -1.50310227548189
H           -5.48630127262982        4.19968813381747       -0.42892275913979
H           -3.98779346873177        4.97654789983358        0.06296631585748
C            0.62702271707649        4.34216225286184       -1.19582035792526
H            1.54352589427559        3.87984901331292       -1.54848134251027
H            0.06918207128520        4.71480518331750       -2.05156415457825
H            0.88344146705594        5.19657462995087       -0.57219122164352
C            2.77107006908108        3.76919598025922        1.00942350791146
H            3.46270547004239        3.72994161855588        1.84869401836785
H            3.05840148827803        4.61459781789302        0.38692987523032
H            1.76957391636005        3.93295552585708        1.39376575046766
