75
 energy: -120.468939509117 gnorm: 0.000340517198 xtb: 6.5.1 (b24c23e)
Si           0.38838311604674       -1.35951137529321       -0.19404658393860
O            1.71943785213188       -0.61229349664483        0.37110316256210
C            2.74633211643991       -1.13196782413427        1.18204472607357
C            3.62531681766269       -2.07750584772636        0.40581560495648
H            2.29598012235750       -1.66082211393941        2.02972273390606
C            3.91155906261640       -1.81839201457916       -0.92733157761675
C            4.15636526299468       -3.20656109003072        1.01244035932784
C            4.71573758640251       -2.68243178499112       -1.64814016594211
H            3.48337949991960       -0.94832465377313       -1.40203121469202
C            4.96629713099622       -4.06593484304062        0.29209368753577
H            3.92014041160143       -3.41855310391369        2.04482632853670
C            5.24708201681892       -3.80587107065879       -1.03866747551654
H            4.92444274014539       -2.47911716730049       -2.68817813513064
H            5.37128231931161       -4.94682550001202        0.76827477335267
H            5.87301369580694       -4.48252027010896       -1.60194707566065
C            3.57226084569698        0.05874916350509        1.70154558967587
C            2.72000458902319        1.00548266203057        2.38591871055019
H            4.34159700848506       -0.31417231869926        2.38167062069900
H            4.05711218831349        0.54640647566895        0.85265584956631
C            1.96492837342968        1.77192715547906        2.91030798628466
H            1.32733023514760        2.44310654605365        3.40276463190376
Cl           0.18058050676387       -2.36591603478105       -1.96564460681547
Cl           0.48843452615449       -3.11019555592568        1.01987935984577
O           -0.98872645228164       -0.85979983489344        0.72003459483193
O            0.10876641820423        0.13903121357386       -1.27283106243170
C           -2.14558041978232        1.04589285283257       -0.11461340166852
C           -0.94246001247676        1.81447008614357       -0.01892210961384
C            1.30813837395472        2.04500299283290       -0.75944050804639
C           -3.11042138034745       -1.15086877345660       -0.14157682974379
C           -4.33556395803953       -0.71778513066935       -0.57166427979730
C           -3.38711532604813        1.54275947896847       -0.55911233737143
C           -4.44229423441296        0.68315204807772       -0.75835556763549
C           -0.79813293120172        3.03608980630807        0.67037413375679
C            0.37270148845235        3.74690004625930        0.56067065621558
C            1.46473496347193        3.29854161393527       -0.21303663611124
H           -5.36580184937318        1.09297432880688       -1.12779325454879
H            0.45776407644047        4.67049408042150        1.10680692715234
C            2.71482422905495        4.12908421103898       -0.45617268180630
F            2.25850583165835        1.45191731596823       -1.47360939166280
N           -2.08357924045502       -0.31793904715872        0.13148675347910
N            0.17409162746679        1.33458820734298       -0.67421981222329
F           -2.82839956919585       -2.42836781267168        0.07897400098075
C           -5.46425591938657       -1.69494136705014       -0.85648537322557
C           -5.80145490732531       -2.46852079586416        0.42658350708666
C           -6.72999725007157       -0.97439780801327       -1.32903399651457
C           -5.02006445614927       -2.66820773363005       -1.95792288270425
H           -6.08423224397439       -1.78011502553168        1.22068821862638
H           -6.63564116447733       -3.14048586326937        0.24066032498631
H           -4.95990310239353       -3.06361637525903        0.76611840474970
H           -7.51081476964089       -1.70949353664959       -1.50783612431630
H           -7.09188408106998       -0.27838431567998       -0.57581174660299
H           -6.55497173701508       -0.44100916092991       -2.26018069442465
H           -5.83511464337559       -3.34635531699276       -2.19871567825497
H           -4.74793383502318       -2.12152904897336       -2.85837992935196
H           -4.16710223754560       -3.26243421571575       -1.64632441401387
C            3.96082572284451        3.37830437088548        0.03011543298138
C            2.82779921588514        4.40705510467674       -1.96343585501629
C            2.65126390059618        5.47098447507024        0.27822271621495
H            4.13008222860459        2.47795094153314       -0.55143450885221
H            4.83650611457721        4.01459002567441       -0.07547622667123
H            3.84969285098881        3.10747096492570        1.07772710885846
H            2.93429882003142        3.48628916538110       -2.52888597298836
H            1.94446056401667        4.93314250913558       -2.32043180389393
H            3.69975385829254        5.02653574845843       -2.15894180563260
H            2.60069531185546        5.32427163206974        1.35423156622744
H            3.55305041324961        6.03841573725576        0.06113789109307
H            1.79875643424322        6.06160385963304       -0.04885707978125
C           -3.55807431946608        2.98168260494720       -0.94541159418603
H           -4.08148157792797        3.53105862374817       -0.16508388298630
H           -2.60041900858606        3.45839701395866       -1.12799853429645
H           -4.15806080807167        3.04442232194734       -1.85031394203306
C           -1.86253085386365        3.52002551562964        1.60975567885561
H           -1.41159590569429        3.75335124704526        2.57249509563079
H           -2.32890468383665        4.43129624224448        1.24021498727875
H           -2.62642958964708        2.76415983847379        1.76035762991338
