69
 energy: -113.770447189280 gnorm: 0.000860216980 xtb: 6.5.1 (b24c23e)
Si           0.21658469123687       -0.77870931022700        0.05162473852853
O            1.12529318282866       -2.10458033874106       -0.08806267932863
C            2.12705035705413       -2.69604823801612        0.70002988434939
C            3.31132130604033       -3.05609362891105       -0.15840121557201
H            2.43890894082929       -1.99877684144364        1.48615231224369
C            3.15248827078325       -3.31366404754214       -1.51281604077980
C            4.57429426896572       -3.15511793917280        0.41135474834422
C            4.24415780424052       -3.66094541341204       -2.28890896046356
H            2.17069207490540       -3.22567315024232       -1.95196260661724
C            5.66288926153538       -3.51078665574904       -0.36419506954025
H            4.70284343520695       -2.94708246774537        1.46429476570374
C            5.50015542847916       -3.76380533836857       -1.71616077382265
H            4.11266883263614       -3.85339987916403       -3.34366188733804
H            6.64200064684148       -3.58557439824012        0.08619991279371
H            6.35207714709142       -4.03713445721528       -2.32159474220378
C            1.53081181110315       -3.95889661388408        1.35587113148355
C            0.42272889322409       -3.59516688833816        2.21224201028151
H            2.30656397343581       -4.46484324557958        1.93554317428906
H            1.17833714187532       -4.62746617754340        0.56594649991873
C           -0.49533123604618       -3.22935129512315        2.88691257854719
H           -1.29776135942181       -2.93018582957140        3.49238603865042
Cl           1.27345540641184        0.04694764320638        1.77686071151038
Cl          -1.00172303845898       -1.62760842468649       -1.51516670507586
O            0.53906444082549        0.54833560607676       -0.98495826012377
O           -1.16363639369846       -0.13956178947778        0.88412400056329
C           -0.81134287556418        2.35319217240114       -0.32249147023819
C           -2.02459347521665        1.60854215283138       -0.40108228784591
C           -3.33361065896335       -0.35771488762017        0.07288578184696
C            1.59591342316448        2.50734815665471       -0.32122183694694
C            1.59667472993662        3.84638904455486        0.01040592192889
C           -0.83281885990798        3.74009990601214       -0.09592709084872
C            0.31620885237484        4.45502350623978        0.07754545717529
C           -3.17328634808759        2.14985376169340       -1.00186651780302
C           -4.33078078848407        1.43391101908798       -1.10278155350467
C           -4.45255643102517        0.12321304967830       -0.57610662515969
H           -1.79065052752576        4.22137768852121        0.01528658025726
H            0.23896566951602        5.50543958354480        0.29108307688379
H           -3.10045264398381        3.12674483005799       -1.45100660815821
H           -5.16505617661786        1.87998004983673       -1.61292306652666
C           -5.73705155626072       -0.67863276855000       -0.73486906118354
Cl          -3.23315098532549       -1.84739798863804        0.88712138173690
N            0.44558381659988        1.81090995988347       -0.50410594151210
N           -2.19021381790566        0.36333737637562        0.16444722135222
Cl           2.98706953021002        1.56461231749687       -0.61067480568176
C            2.86561379391557        4.63923288100135        0.29222211517669
C            3.63055768492921        3.98459900742983        1.45122928868910
C            3.73879163995491        4.70663378502126       -0.96884281840193
C            2.55143613181767        6.08141750828458        0.70986097777240
H            3.97462169707897        2.98925508689668        1.19792456968356
H            4.49709061905746        4.59010076394813        1.70519927951341
H            2.99035908273300        3.91134011714914        2.32710728314577
H            4.61396360119549        5.32078156208881       -0.77216586970055
H            4.07461289452992        3.72353749401143       -1.27664098378426
H            3.18033064135605        5.15499568839582       -1.78769648438263
H            3.48486898867859        6.59288441302462        0.93219691732492
H            2.05771185014412        6.63019208392599       -0.08851433235805
H            1.93638699553086        6.10886386585309        1.60584041881179
C           -5.43592951655239       -1.98843501916027       -1.47677302190265
C           -6.35495175954847       -0.96034869726822        0.64228321971801
C           -6.78229507996955        0.08369799146707       -1.55892352963204
H           -4.93788026428722       -1.77758162622437       -2.41985226192194
H           -4.79826449385823       -2.64476379056458       -0.89747882583041
H           -6.36563136217267       -2.51301184233562       -1.68326917983742
H           -5.70062567095844       -1.56590679157647        1.25820101344937
H           -6.55461942189542       -0.02558520705361        1.16186581128385
H           -7.29496521200003       -1.49170707423113        0.51677972453608
H           -6.41442127660090        0.30242402791819       -2.55809527240137
H           -7.66925537337060       -0.53703714663567       -1.66028919964097
H           -7.08142635455709        1.00743010773925       -1.06932596143564
