69
 energy: -113.775992624966 gnorm: 0.000764568450 xtb: 6.5.1 (b24c23e)
Si           0.18744234727059       -0.88060792976944        1.44188301002708
O           -0.55223864054660       -2.16321969902864        0.80677739223096
C           -0.72472975667617       -2.64240900429143       -0.51095486586505
C           -2.14629137432061       -2.37772871975034       -0.93504622052381
H           -0.03627767090461       -2.12193309526312       -1.18122727291791
C           -3.19134391303613       -2.69513170151540       -0.07612625243088
C           -2.42704888003320       -1.79040164480619       -2.16055862796805
C           -4.49930234138071       -2.43280843663340       -0.44170708354563
H           -2.96812971313581       -3.12437881202313        0.88919180841724
C           -3.73642085828509       -1.53255224948594       -2.52755697908406
H           -1.61552368620161       -1.53129477424933       -2.82603336834796
C           -4.77444895925562       -1.85344629927210       -1.66932361781115
H           -5.30562137638674       -2.67651025153781        0.23450215438634
H           -3.94716640820671       -1.07455632427002       -3.48305351766063
H           -5.79541738828592       -1.64663939567190       -1.95479578319726
C           -0.40483722626719       -4.14734735729373       -0.52033653740162
C            0.99678350079965       -4.36484710804513       -0.23254375973821
H           -0.65394570951560       -4.55914833378462       -1.50224376028649
H           -1.01232409435978       -4.64228517174369        0.24085464832198
C            2.15949101455098       -4.49305869071132        0.01782843975657
H            3.17488256143246       -4.62718893606832        0.24414230001364
Cl          -0.56788591208037       -1.29608423091525        3.34824374433085
Cl           2.17611828173762       -0.88143175301304        2.01440643086445
O            0.72643879720838       -0.31187818848879       -0.34919064619734
O           -0.53565283274755        0.65417911366471        1.56364924064558
C            1.34366878625075        1.92488641527810       -0.25237706233531
C           -0.00623760338049        2.30962723992100       -0.06350348374773
C           -2.28031283294092        1.65713649396577        0.40168242257716
C            2.94087052820631        0.20246336851940       -0.71619634681355
C            4.01050996739974        1.08057829923307       -0.75691568409449
C            2.40105471323253        2.84929949398261       -0.33480312719009
C            3.68456975478658        2.43864341927990       -0.54706104355764
C           -0.51721587721559        3.53019909052306       -0.54107049367682
C           -1.85940973848452        3.76360756576596       -0.59123401831967
C           -2.80809501076310        2.77596790254321       -0.19921221798812
H            2.18519620620554        3.89098208553674       -0.16685065922279
H            4.46306873910752        3.18005745307475       -0.55736922930240
H            0.17271529632588        4.25987032914395       -0.93176885253779
H           -2.20423316697681        4.70584982871358       -0.97584957741434
C           -4.29921696533894        2.97982153484358       -0.43425678176859
Cl          -3.18546045769311        0.36734195472781        1.07454854049070
N            1.68095130235586        0.60722971717818       -0.43659741383901
N           -0.93647413215512        1.48086434207650        0.54569941504080
Cl           3.02809355679681       -1.46690885726360       -1.06480880103858
C            5.44660289016921        0.63541506794458       -0.99472254405043
C            5.84716903131153       -0.40035997049892        0.06575810822677
C            5.58910058797182        0.05301314805003       -2.40830171102610
C            6.42852480546596        1.80802350868445       -0.87841667039355
H            5.29817296327701       -1.32706245719396       -0.04627781511185
H            6.90796868977555       -0.62189843406579       -0.02221732911985
H            5.65422506956285       -0.01018860961564        1.06207506706438
H            6.62349577274814       -0.23301156873736       -2.58128110591787
H            4.96511459604254       -0.82261323786661       -2.54485819284823
H            5.30896953778182        0.79772142535476       -3.15041506175258
H            7.43890677951719        1.43581695111029       -1.03021617872756
H            6.24004130154519        2.56528249676826       -1.63581312117276
H            6.38615332442973        2.26067689255717        0.10907695085507
C           -4.84351794654991        1.84035307882044       -1.30709099863925
C           -5.04124383409580        3.03601860429578        0.90840997416442
C           -4.58442746017174        4.29464988969633       -1.17156937673196
H           -4.30949200533684        1.80703582571077       -2.25418222320378
H           -4.74116474749890        0.87637340644602       -0.82302505504602
H           -5.89782596280295        2.00939081061087       -1.51169805281103
H           -4.97038981945301        2.09674821341068        1.44374659690539
H           -4.62541744303461        3.82321199164529        1.53329564309956
H           -6.09251709857684        3.25268682061512        0.73553594749307
H           -4.08045874144239        4.32718750278119       -2.13452581930455
H           -5.65404049290813        4.36970728814889       -1.35304864821157
H           -4.29040562482511        5.15646767226621       -0.57753084503062
