69
 energy: -113.775364891576 gnorm: 0.000971891154 xtb: 6.5.1 (b24c23e)
Si          -0.09223713508999        0.85572692443776        0.64233380780057
O            0.26547583928201        1.82049496745485       -0.60535564748327
C            0.35999059554478        3.22873711583544       -0.61720656306116
C           -0.99064171990018        3.84307121089419       -0.35579385315106
H            1.06107393645237        3.54557674256907        0.16520175875378
C           -2.11256173161067        3.32233595287179       -0.98673616451349
C           -1.13527579140544        4.89872370594876        0.53219452398447
C           -3.36591901633999        3.84519893228290       -0.72770883893610
H           -1.99606062311384        2.48960132546049       -1.66452753118258
C           -2.38922264307127        5.42712447369829        0.78456484858131
H           -0.26646271370105        5.29274503977219        1.03841533904957
C           -3.50567280613611        4.90056893151161        0.15778161647093
H           -4.23503320630751        3.42560200588430       -1.21345596983700
H           -2.49579715238481        6.24421350596372        1.48297579070668
H           -4.48494047899837        5.30674136426767        0.36527928064189
C            0.89806078319077        3.64670483846902       -1.99556540427658
C            2.25648599877002        3.18815911235363       -2.18939107611067
H            0.86251936542393        4.73683526068342       -2.07123110486598
H            0.25601772733351        3.21421323147278       -2.76654061070262
C            3.38008680547516        2.79891517425699       -2.32176557303614
H            4.36640932051349        2.46895239741482       -2.45803470096437
Cl          -1.97738257287428        0.58516820424169        1.48718570484162
Cl           0.52976536567126        2.14925903812350        2.24601609723229
O           -0.47208096470693       -0.37336788161446       -0.69143074642902
O            1.07727825944894       -0.23113945637656        1.24064281952514
C           -0.26356737893029       -2.53500007082537        0.16056062799160
C            1.14056341391263       -2.38746414267687        0.26041119835863
C            3.05634577288860       -0.92517573488079        0.24484360830848
C           -2.37826832715107       -1.67103381662281       -0.55936462577863
C           -3.07073307553148       -2.81311652736544       -0.19811847516408
C           -0.93085703365404       -3.72779973871338        0.49716578493147
C           -2.28127293145447       -3.84920431216030        0.35308433607783
C            2.03098077612198       -3.46192166150404        0.07628111607168
C            3.36956641527566       -3.25055311204887       -0.07180509581829
C            3.92767244762651       -1.94089928111898       -0.08010714062894
H           -0.35612975847123       -4.53021957686122        0.92871694459360
H           -2.74884602427527       -4.76578700728572        0.66458741259800
H            1.62657371680200       -4.45668088828642       -0.01356190154707
H            4.01023233061434       -4.09954385516920       -0.22634295972007
C            5.39580393655156       -1.71242826172295       -0.41525887988858
Cl           3.46737124646455        0.72804509946842        0.42322434975343
N           -1.04802595863594       -1.52931304003812       -0.35174364224481
N            1.74013209140816       -1.16304775451021        0.49512853862008
Cl          -3.06107609309585       -0.33941439591699       -1.36667720110941
C           -4.57759349157862       -2.96296445093510       -0.35777585366878
C           -5.28786882582953       -1.84929355005232        0.42537192272939
C           -4.96225166254373       -2.91753888714221       -1.84371796642105
C           -5.07506353468439       -4.30201431345278        0.20146104435826
H           -5.07477059020372       -0.86761938283385        0.01997514449475
H           -6.36313585181855       -2.00607040301936        0.38932836648978
H           -4.96972371126375       -1.86243719607720        1.46511564248646
H           -6.03290216471737       -3.07626427840379       -1.94571154527410
H           -4.71529047911572       -1.96335746925344       -2.29409472274065
H           -4.44429433220071       -3.70377092733364       -2.38907471551125
H           -6.15508674137762       -4.35075630844738        0.08518711983821
H           -4.64733820530066       -5.14390147712502       -0.33794851821141
H           -4.85155615106958       -4.39591503016627        1.26120338934724
C            5.50957328448756       -0.76080430498010       -1.61460583410092
C            6.12488356366486       -1.13283771551601        0.80589229240362
C            6.10300653159046       -3.01848471580587       -0.79868466455802
H            4.97956151390127       -1.17157776835227       -2.47106088694543
H            5.09434919369752        0.21220074744659       -1.38478990236055
H            6.55570087077787       -0.63443679566904       -1.88353787158541
H            5.73538570891097       -0.15826380349997        1.07675164636729
H            6.01509843162011       -1.79946688637549        1.65882934916049
H            7.18413444956222       -1.02939737103975        0.58370722827208
H            5.62742374608501       -3.49088526159165       -1.65500963729272
H            7.13137641571673       -2.79309523255808       -1.07130166867808
H            6.12943402376073       -3.71705325745733        0.03420484296245
