69
 energy: -113.775174816517 gnorm: 0.000551953910 xtb: 6.5.1 (b24c23e)
Si          -0.22801238549988       -1.33252418196038        0.43341295612441
O            0.67058906631771       -2.54949971772172       -0.20718415992417
C            1.95591449557216       -2.99394164795323        0.13576182551617
C            3.03177899098732       -2.14529580749084       -0.49365903708932
H            2.06114544263647       -2.96289988341282        1.22975159570173
C            2.80736028196015       -1.50828744189160       -1.70572408521229
C            4.26061241899969       -1.99438920142578        0.13643856741234
C            3.78388628400143       -0.70170758858426       -2.26238438303782
H            1.85166071447948       -1.63047936319888       -2.19125479196493
C            5.24223121801243       -1.19951551635123       -0.42816491379339
H            4.43928852540320       -2.48881250300697        1.08134330702152
C            5.00215632074374       -0.54347124339025       -1.62417705334348
H            3.59316675003039       -0.19510108621440       -3.19771964959826
H            6.19204543703933       -1.08077894276750        0.07305113957501
H            5.76343248313169        0.08990461563211       -2.05595310533538
C            2.09569870237017       -4.45446295387396       -0.33888329422721
C            1.18050109283324       -5.31334720664522        0.38036242471337
H            3.12452081838619       -4.78641316153120       -0.17610009963413
H            1.87128499757902       -4.49386337040181       -1.40772114164254
C            0.40699793786972       -5.98160580370352        1.00171359963461
H           -0.26773631282283       -6.58434836059536        1.53182324692179
Cl           0.19363412891729       -1.59194398136731        2.42701693079154
Cl          -1.80547369896738       -1.96665077609328       -0.75205695862347
O            0.65763633559258       -0.09965322171639       -0.34367747766235
O           -1.35304304830662        0.08066434536703        1.12544146528242
C           -0.38361674720812        2.03449719756806       -0.56228226714063
C           -1.72934432617385        1.59161597682996       -0.60226528582329
C           -3.50135875736192        0.28282609097220        0.33325268017243
C            1.84156508167925        1.77932119871923        0.32769779128833
C            2.18408130169154        3.08578688544023        0.07932064487276
C           -0.01285524632128        3.33828960481000       -0.93899677251100
C            1.22666963803274        3.83506994818629       -0.66245768053948
C           -2.67520839509280        2.12074704663777       -1.49989106045615
C           -3.97676177911477        1.71163493435734       -1.48377349953374
C           -4.45288085335694        0.77169422926887       -0.54561812831379
H           -0.75088004227822        3.97065122421813       -1.40386222966563
H            1.46031269688062        4.83773745677770       -0.96999498224610
H           -2.34088143725176        2.82303222756773       -2.24465886054414
H           -4.64997560713973        2.12280308876664       -2.21436461128018
C           -5.90609373737771        0.31950288601033       -0.53969361490831
Cl          -3.81552655740729       -0.80747485955090        1.60203584399335
N            0.65531941341147        1.24605185669627       -0.08695759697820
N           -2.20367668774203        0.66237269289075        0.28786488128730
Cl           2.81539864205682        0.63685531607094        1.15412902864711
C            3.48903176655597        3.71658683720982        0.54776939600420
C            3.57380358892123        3.65662818158657        2.07918437253453
C            4.67939430525251        2.98790998182209       -0.09226708824709
C            3.58469858926001        5.19361171867757        0.14449448475427
H            3.59039279887071        2.63557078672808        2.44080728763192
H            4.48174555395186        4.15207866097749        2.41410597917186
H            2.72039821648880        4.16659480203370        2.52041425160899
H            5.60557958886354        3.47751345178138        0.19837801418189
H            4.73052563887058        1.95028275104878        0.21636686640184
H            4.59745501502819        3.01997149619268       -1.17644582551680
H            4.51871411844558        5.60098081140103        0.52415994570714
H            3.58839682076348        5.31270762085364       -0.93613810462763
H            2.77107900295691        5.77449714803797        0.57178358525318
C           -5.96970963734634       -1.19749654484743       -0.76851134543775
C           -6.57276193318002        0.70063463940358        0.78976961496614
C           -6.71054217466448        0.98592113452684       -1.66291982828349
H           -5.41972756840648       -1.46270821184344       -1.66805381448491
H           -5.54538383969225       -1.74904594269104        0.06134176089269
H           -7.00539495648691       -1.50564044186351       -0.88855976495492
H           -6.09774501981667        0.21067402091335        1.63144194640118
H           -6.52095421505283        1.77698716210369        0.93982167374556
H           -7.61893568755214        0.40608042832309        0.76872281019749
H           -6.31052819971488        0.72997593983633       -2.64074996415312
H           -7.73591088750520        0.62661626622846       -1.62008877552069
H           -6.73507748199012        2.06723429960679       -1.54959066613748
