69
 energy: -113.775311496338 gnorm: 0.000732725880 xtb: 6.5.1 (b24c23e)
Si           0.50421965350836       -0.74738102794396        0.59223096465932
O            0.62620531637405       -1.77377637454120       -0.65174857274309
C            1.04245319780208       -3.12143634503192       -0.64018233531326
C            2.49352890945641       -3.22427837360243       -0.24869363222122
H            0.43157201272001       -3.67803923768881        0.08176217832512
C            3.40646827535151       -2.30738007588215       -0.75185070793804
C            2.92715297833711       -4.20943693374972        0.62614725228979
C            4.73601678360305       -2.36739269745658       -0.37737236875297
H            3.06090388033164       -1.53420932411335       -1.42194962651221
C            4.25947882146736       -4.27416777970078        0.99375701953978
H            2.21575074932462       -4.91353720480169        1.03178760961307
C            5.16484573138388       -3.35276427085862        0.49552205139245
H            5.43693846837280       -1.64156202832014       -0.76340436171883
H            4.58907540485504       -5.03899393187289        1.68148242582015
H            6.20218103962195       -3.39792812674984        0.79344202077187
C            0.81777402882949       -3.68633945620363       -2.05294965690541
C           -0.58904381909619       -3.71430250649634       -2.38873867737265
H            1.22904278778737       -4.69836437157789       -2.09684908391168
H            1.34828347853784       -3.05412794273770       -2.76906553477839
C           -1.75884698413725       -3.72219480901168       -2.64056505161379
H           -2.77996192203753       -3.73879140496005       -2.87991156928064
Cl           2.07105248740794        0.27695667518573        1.50459290725786
Cl           0.39880106976890       -2.18279919911829        2.19245824067722
O            0.40593536921222        0.52122344894712       -0.75206017697983
O           -1.02912605187800       -0.22534886364872        1.12977646742237
C           -0.70462166960336        2.41426207215996        0.03560824191109
C           -1.92758607274890        1.70361822711816        0.08800391410479
C           -3.07630656902314       -0.41456869700544        0.05191554018324
C            1.60669947894904        2.48779399044033       -0.58659216397577
C            1.75293778887229        3.81806966408749       -0.23571907428923
C           -0.60129345563844        3.77989595589740        0.35996475935594
C            0.58482264233287        4.44448680298381        0.25779992507208
C           -3.16882643223311        2.31595350250122       -0.16688200525383
C           -4.29481098212345        1.57272475759057       -0.36131386822598
C           -4.26858576855964        0.14983517269699       -0.34380538173902
H           -1.47262085316783        4.28046388530830        0.74783063857122
H            0.62079338946595        5.47646152371316        0.55679435801045
H           -3.20160760496240        3.38741902127492       -0.27521623635065
H           -5.21714145208646        2.08207355543121       -0.57265749986945
C           -5.49737409369452       -0.66448375580307       -0.72706078799434
Cl          -2.78867123657204       -2.08612990309688        0.28128676599271
N            0.44472621175764        1.81409324799710       -0.42040247315334
N           -1.98498816942118        0.34511610811044        0.34114882216869
Cl           2.80915679362796        1.54476188550846       -1.33245248197403
C            3.06906840040502        4.57438408336787       -0.35397146606190
C            4.14680199050724        3.86205209202370        0.47586176399485
C            3.49070653803976        4.67506820312234       -1.82718185565959
C            2.94964225212804        6.00505150730737        0.18641207644659
H            4.36838597968625        2.87356183508083        0.09231191982403
H            5.06382377212024        4.44592145087839        0.46145236812872
H            3.81674625591995        3.75935902018919        1.50681269146117
H            4.39994646052162        5.26588763285435       -1.90470469404050
H            3.68078992829729        3.69912970008391       -2.25817878048211
H            2.71138225924989        5.16526176308079       -2.40699321830971
H            3.91899774519602        6.49144794344235        0.10739813963783
H            2.23845768897876        6.59211470414090       -0.39012132077283
H            2.66158787271867        6.00935899767909        1.23474077838829
C           -5.14845177872446       -1.61909262520396       -1.87725600063544
C           -6.00135618748276       -1.44978136623620        0.49191256401140
C           -6.64607384084325        0.23018205982383       -1.20960008579051
H           -4.74061178284594       -1.06069985906853       -2.71724109096316
H           -4.42257965775119       -2.35972539654372       -1.56510776186339
H           -6.04608572829792       -2.13598788928274       -2.20837256640232
H           -5.25783610504271       -2.15417877385945        0.84619645522925
H           -6.24486377940578       -0.76656091286761        1.30246181056026
H           -6.89894361121799       -2.00240779666238        0.22564592635825
H           -6.34986578711130        0.82393471993134       -2.07117954214264
H           -7.48003124333716       -0.40023221187073       -1.50934392970691
H           -7.00016325386070        0.88754626251666       -0.41937095497249
