69
 energy: -113.774124849998 gnorm: 0.000460809834 xtb: 6.5.1 (b24c23e)
Si          -0.09595778934743       -1.68828621546396       -0.57911162600964
O            1.44688473626463       -1.49309510650081       -0.10713068477354
C            2.27408851336951       -1.64722174427827        1.02773672926011
C            1.81424379542993       -0.72036168800006        2.12835909536330
H            3.26228018934390       -1.31531587675190        0.67320509790467
C            0.58391326186417       -0.90075543564305        2.74923659093844
C            2.59957090508971        0.36564054179920        2.49275402537938
C            0.14007404695651        0.00724294221662        3.69415078202330
H           -0.03624168844962       -1.74194899718615        2.48408849916949
C            2.16224255758550        1.26387835522353        3.44991315633140
H            3.56259942157684        0.50858957838684        2.02361643018158
C            0.92495002756756        1.09247261514819        4.04543998664222
H           -0.82295664243095       -0.13765621462319        4.16090810958286
H            2.78693159675236        2.10079219824652        3.72680363668665
H            0.57668462846224        1.79825156385248        4.78545212871436
C            2.40460868754908       -3.10348596503541        1.49935780132621
C            2.93585826096748       -3.92466800191148        0.43261447130295
H            3.07768879003584       -3.12390711232122        2.36115262428376
H            1.42923405911418       -3.49232060384906        1.79374399605381
C            3.36892395138176       -4.55332484824676       -0.48844557839187
H            3.73687006105095       -5.13408140003828       -1.28024114127644
Cl          -0.42748814566475       -2.53286100822082       -2.40408306428173
Cl          -0.69338594101789       -3.39605732271522        0.54888625385859
O           -1.28350959652739       -0.87445114349647        0.34089057575985
O            0.08047092112471       -0.06857648194115       -1.55945319867907
C           -1.25430695481949        1.50675375545628        0.24417954092401
C            0.12984782013301        1.66085546714829       -0.00536828023790
C            2.07354427389904        1.05012842126876       -1.26707966008734
C           -3.27062203672180        0.23053046609331       -0.09635056992260
C           -4.09089675904297        1.31453678302039        0.11296934903201
C           -2.07678277016224        2.58612871523801        0.62060057238378
C           -3.43552020723425        2.49028889469872        0.57717710868913
C            0.91378767532958        2.65196707765533        0.61416417775834
C            2.23018753759699        2.81447319314564        0.29798219592985
C            2.87131226244689        2.01648290126063       -0.67581599426482
H           -1.61112208004642        3.52113384921455        0.88373361283627
H           -4.02136713400381        3.34492725399227        0.86199838111542
H            0.46441846531169        3.25465351269698        1.38479509900193
H            2.78886492255648        3.57210430285513        0.81709991301892
C            4.33169817295146        2.24084411187795       -1.04783501936992
Cl           2.57930370377620       -0.02823502862397       -2.48885518870517
N           -1.91922767108376        0.30420360558428        0.06223875474208
N            0.77006899166543        0.88967304899493       -0.94459245472998
Cl          -3.78997182454787       -1.34321121382345       -0.53688429914815
C           -5.59552253571809        1.29051007293385       -0.12135816091901
C           -5.88143573688123        0.92510580268746       -1.58481951168604
C           -6.26186333296043        0.28457078353812        0.82750840422205
C           -6.23307465905289        2.66107997757967        0.13928584272644
H           -5.52447389211764       -0.06857555289198       -1.82754711983575
H           -6.95306682040566        0.95519614454503       -1.76558301006986
H           -5.39989753463231        1.63864894240829       -2.24988341744760
H           -7.34056739095488        0.32059275533856        0.69716913111874
H           -5.92946960209937       -0.72819995162482        0.63366868326043
H           -6.03102780944997        0.53389626998416        1.86075847131930
H           -7.29534336288185        2.60200099875472       -0.08538275185670
H           -6.13328305795329        2.95585670702320        1.18099489619726
H           -5.80029929437206        3.42767731857655       -0.49877634022563
C            5.15615670770043        0.97076046591452       -0.79530257330964
C            4.42464651651762        2.65646485377760       -2.52353752961561
C            4.96363812619939        3.36389912435731       -0.21522256495439
H            5.12166385124220        0.70273410084472        0.25850995273609
H            4.79662725324215        0.13147698440610       -1.37855047016128
H            6.19375816279453        1.15188139174024       -1.06513612903887
H            4.07502061123199        1.86980204758407       -3.18164221497122
H            3.82726751279043        3.54843858399263       -2.69929278662575
H            5.45834133817203        2.87966139272583       -2.77532504423007
H            4.94342941955975        3.13255634367345        0.84708252197602
H            6.00456457861383        3.47504411151997       -0.50955834526023
H            4.46760595536345        4.31566858420378       -0.38897786966631
