69
 energy: -113.688985480380 gnorm: 0.000483109942 xtb: 6.5.1 (b24c23e)
Si          -0.16338170300912       -1.03090565217242        0.88719525120758
O            1.22624119363215       -2.03698618335498        0.39356331210519
C            1.66343676192135       -2.24672737390733       -0.77026167247301
C            2.98737050679013       -2.69859149680807       -1.02194544214518
H            1.00597171055666       -2.06817651571780       -1.62123123714411
C            3.88351641102314       -2.92638340532280        0.04000657446537
C            3.42387261564470       -2.92021195311821       -2.34078718461836
C            5.16532133761031       -3.35666239663167       -0.21540529367089
H            3.53647813251369       -2.74832855767225        1.04661331211924
C            4.70969566538567       -3.35058681860899       -2.58102314995615
H            2.73778895602776       -2.74925267922622       -3.15692764728655
C            5.58461560361078       -3.57030745826260       -1.52355474597783
H            5.84919304888117       -3.53025008941031        0.60233146780845
H            5.04158936842697       -3.51954046325304       -3.59494215722775
H            6.59128087322464       -3.90807422862901       -1.71921330655745
C            3.38968445345230       -0.68327962982664        2.72383419165157
C            2.16074844035877       -0.35712415645728        2.46272262310890
H            4.22778071713080       -0.23043729720553        2.21610113083439
H            3.62571020066539       -1.41313847902074        3.48156084545583
C            0.94164823622517       -0.07123952787787        2.15099756150566
H            0.43439936392077        0.72332124430895        2.68165396737337
Cl          -1.42657531716301       -1.90396517480436       -0.71324415569539
Cl          -0.80119316446484       -2.47159590895683        2.31210688664415
O           -1.45161709784502        0.25147819900549        1.27320075849124
O            0.34186471053656        0.16499865951373       -0.58410965605532
C           -1.99922767070346        1.62742014714275       -0.48358139849968
C           -0.69314408182641        2.23133714015810       -0.41326273498918
C            1.67954253550300        2.01167855934487       -0.28629821898934
C           -3.54818033971887        0.00612115106044        0.32824759242852
C           -4.51406870651590        0.35937125322790       -0.60727101528071
C           -2.97983284861744        2.08189161322728       -1.36317321170589
C           -4.19266464928525        1.44568767086955       -1.44173392077119
C           -0.52409208189884        3.61535462217404       -0.41407549507797
C            0.71890344535066        4.17526351235304       -0.27804055971778
C            1.88058531643941        3.37642027146614       -0.17735342080485
H           -2.74121266684983        2.89834910833924       -2.02551809414263
H           -4.90449920242631        1.79064596228326       -2.16984060838395
H           -1.40308204175074        4.23761908375997       -0.46571222540488
H            0.80062018655365        5.24600903295289       -0.24280599900255
C            3.25278758244168        4.00267856767782        0.03152867386057
Cl           2.91736202187626        0.83079025421309       -0.38647471432622
N           -2.34061425201077        0.61570072635346        0.36485985730314
N            0.44293149406538        1.46111541974359       -0.39380122975761
Cl          -3.74745228270903       -1.13673854254825        1.57257511227988
C           -5.83907760743955       -0.37740770122094       -0.74405925247728
C           -5.56438292677597       -1.86468103639723       -1.00783852727974
C           -6.68252244131225       -0.19222828871508        0.52510192970965
C           -6.66280295705991        0.15132249416924       -1.92537902899802
H           -5.08528178819229       -2.34365469312265       -0.16307157556718
H           -6.50085273056212       -2.38007751477218       -1.20586795937601
H           -4.91482833491242       -1.97647666835021       -1.87250434411936
H           -7.64092280992287       -0.68904869171414        0.39840312497005
H           -6.19167362505374       -0.61216910269546        1.39480921200011
H           -6.86350214665901        0.86544033568195        0.70438378034569
H           -7.57619845336986       -0.43315929242190       -2.00428331311195
H           -6.94924675070842        1.19056838520169       -1.78157607570619
H           -6.12072098844341        0.04801794557356       -2.86196721737740
C            3.88422888544948        3.43241780539394        1.30941331626648
C            4.14802673420000        3.73411668445278       -1.18637547788298
C            3.16308203616653        5.52383995488876        0.20833670499074
H            3.24328804958146        3.63300142518258        2.16489184205197
H            4.03686528473467        2.36225722769850        1.24137274180058
H            4.84824268574779        3.90407762138710        1.48250153648945
H            4.34102885195655        2.67573028889933       -1.31593109494880
H            3.67514137886960        4.11382643692210       -2.08938485790270
H            5.10007968261531        4.24256435794927       -1.05695126675686
H            2.53316893861589        5.78804434551581        1.05401646809466
H            4.15946874757171        5.91337480437585        0.40248316679586
H            2.78914150192007        6.00903466573371       -0.68989245498874
