69
 energy: -113.778465285906 gnorm: 0.000362543459 xtb: 6.5.1 (b24c23e)
Si          -0.33857810321642       -1.65575503341817       -0.36477970209615
O            1.22817163370857       -1.41907289116845        0.01139499889182
C            2.12157330744431       -2.06530452744331        0.89113521471941
C            2.69354792524428       -0.99454022325657        1.79578105703677
H            1.55861378239281       -2.79103035753119        1.49510057489614
C            1.81040220318237       -0.07225518894298        2.34917954739037
C            4.04749357188250       -0.86823958055762        2.07583742294305
C            2.26896014459392        0.96965370067490        3.13173361539410
H            0.75290851518871       -0.18111659678837        2.16243946126320
C            4.50639450517504        0.16961242651292        2.87195356217425
H            4.75997477519836       -1.57628335387364        1.68223883277687
C            3.62323452789249        1.09882185233973        3.39043422961286
H            1.56744888470430        1.67891663392022        3.54622011112356
H            5.56347746329113        0.25333868828694        3.07936571744251
H            3.98619087616360        1.91245960291806        4.00113575132617
C            3.17149297460789       -2.82394456423274        0.06453488478948
C            2.51250464584912       -3.71106287194109       -0.87270668000899
H            3.80468284433448       -3.41030012384743        0.73425007716831
H            3.78722390177131       -2.10990871828940       -0.49037030154307
C            1.91953698199429       -4.40030708405073       -1.64968613297996
H            1.40279513240383       -5.01436365586226       -2.32449428546223
Cl          -1.00918535266468       -2.54647508661294       -2.07259206011185
Cl          -0.72449432873527       -3.30746855561396        0.92978446556365
O           -1.40921206455952       -0.77515597007617        0.64580015944724
O           -0.20456178096997       -0.11930738906586       -1.42442120723804
C           -1.52767545613649        1.56436130869029        0.28036270524978
C           -0.15012310866936        1.72595701325963       -0.00759452015436
C            1.78076225560871        1.05568592941602       -1.25503901991325
C           -3.49073211717046        0.16585413323149        0.21906038105518
C           -4.35122512394621        1.23759233257317        0.30058713670048
C           -2.38228951861881        2.65512945692735        0.52070108647153
C           -3.73647332715106        2.49840129908238        0.54310168952987
C            0.62640796480269        2.76810544343381        0.53050616759630
C            1.94352292347838        2.90729630327060        0.20699048823701
C            2.58015644247222        2.05285557910735       -0.72287340161720
H           -1.94778411409134        3.63654109966552        0.61686105797776
H           -4.35187288514967        3.36336349740660        0.70990065952386
H            0.17029109143463        3.42550449732635        1.25176873192051
H            2.50507220203103        3.69371569522050        0.67742091311070
C            4.03516536517826        2.26520074300720       -1.12029835894373
Cl           2.26534120760343       -0.05622079490579       -2.45416298169708
N           -2.14037456678557        0.32259869728644        0.29456649758504
N            0.48774729534152        0.89320617638462       -0.89410267825994
Cl          -3.95099207630230       -1.47684236959411        0.06110781773297
C           -5.86170695284354        1.11422652997605        0.15001673965668
C           -6.19303077186793        0.49655769795221       -1.21591749061277
C           -6.43588209973511        0.25661626595521        1.28619624841790
C           -6.55294294282667        2.48233614095467        0.21039280958135
H           -5.81363717340559       -0.51438337903893       -1.30231921258341
H           -7.27127125744116        0.46795243162665       -1.35156745157776
H           -5.76139491904640        1.09787352279558       -2.01296584274127
H           -7.51852456340935        0.21284157527196        1.19827403620829
H           -6.05013382336103       -0.75542006719948        1.25648555682680
H           -6.18576254789768        0.69505135016571        2.24974717798146
H           -7.61978506801060        2.34309234409906        0.05300411144794
H           -6.42313386689719        2.95338504464864        1.18163329083267
H           -6.18559932977199        3.14637624459677       -0.56825722962633
C            4.85343488851352        0.98874351339642       -0.88371048379282
C            4.10194034010985        2.68111149165060       -2.59720382074187
C            4.68957103472079        3.37679085580153       -0.29029428521690
H            4.72768630441230        0.65319927159284        0.14293536433783
H            4.55569159660668        0.19173542662125       -1.55432236821186
H            5.90723369827465        1.19573070342632       -1.05455260456127
H            3.70269953467438        1.90818665407522       -3.24440168992936
H            3.53413781998108        3.59530369195201       -2.75647850948815
H            5.13594745218808        2.86440081756935       -2.87835708115657
H            4.66633154954089        3.13779214824513        0.77039813500093
H            5.73088874964995        3.47159621592492       -0.58877716109963
H            4.21162292703819        4.33852633507624       -0.45972792557498
