69
 energy: -113.778271054986 gnorm: 0.000646110764 xtb: 6.5.1 (b24c23e)
Si          -0.34746051197881       -1.40477083050762       -0.75203067635363
O            1.23328009104428       -1.26234790045355       -0.37405547338007
C            2.19586046317041       -2.22836260831336       -0.03513208801544
C            2.88913690965689       -1.86712166198727        1.25441665982671
H            1.70477136501189       -3.20279040135925        0.07339703384488
C            2.85687526148763       -0.57434731377991        1.75537881446859
C            3.61243725190986       -2.83820681314290        1.93738463521224
C            3.54113723396986       -0.25222313988076        2.91475845847460
H            2.28404680575388        0.17923955100574        1.23858362085817
C            4.29955578443686       -2.51548964831129        3.09275850344197
H            3.62780861918843       -3.85182264839980        1.56371620445593
C            4.26945275493300       -1.21991212888137        3.58309281290429
H            3.50349069170353        0.75923912980645        3.29428160712394
H            4.85813151613310       -3.27771621288923        3.61580087507768
H            4.80677842147985       -0.96902097170651        4.48583916586611
C            3.24217070957439       -2.32191475150102       -1.16771802612959
C            2.59586660964882       -2.60018984437012       -2.43194944623101
H            3.95245799206908       -3.11595252086298       -0.92664845603204
H            3.78413889904132       -1.37411359574988       -1.23114587574266
C            2.00278151788487       -2.79801538292785       -3.45206566898329
H            1.48812658531145       -2.98180135529930       -4.34711659034003
Cl          -1.12402330039506       -1.80705478811018       -2.60199978038958
Cl          -0.67255625016857       -3.36380783952686        0.03599923235348
O           -1.34564313185178       -0.84801984895997        0.52283312178664
O           -0.29144716503708        0.34961098614268       -1.37742761345685
C           -1.55088427118642        1.50288282856377        0.76210513328758
C           -0.20369611972726        1.79786269265688        0.44187789832343
C            1.65805623324233        1.54879979081726       -1.04959015409644
C           -3.47255248594378        0.08005391184809        0.46132716614735
C           -4.35761867029568        1.05997280705386        0.85292145265067
C           -2.42068220345354        2.46239382435841        1.31254496049485
C           -3.76539205467368        2.24629331490467        1.36904650721959
C            0.56604099905946        2.73403350382528        1.15811205252218
C            1.84749114081645        3.02360390334456        0.79238895208762
C            2.45298808197938        2.43905872944012       -0.34556354277447
H           -2.01115834836829        3.40832331395720        1.62633232550899
H           -4.39334665784620        3.01553455746672        1.77980346297581
H            0.13803885806203        3.18109304940221        2.03969939767375
H            2.40649784981935        3.71711464272588        1.39418313655059
C            3.87968261190804        2.78957281509211       -0.74741421522574
Cl           2.09741235358078        0.77404332633848       -2.50764629893533
N           -2.12492293370846        0.26977257492776        0.50408456397708
N            0.40414018247854        1.23086411288982       -0.65316268893684
Cl          -3.89718858485218       -1.48893568365263       -0.07848600469171
C           -5.87040413400631        0.91182164424625        0.75766306030184
C           -6.27070676430715        0.64572244243426       -0.70038750064600
C           -6.34578217263228       -0.22963545716163        1.66732614991604
C           -6.59606813082673        2.18789315419749        1.20312324731932
H           -5.85388001290216       -0.28389900441595       -1.06849838863285
H           -7.35356038757073        0.58686795827308       -0.77622827230492
H           -5.92432364946637        1.45668057481832       -1.33719212509241
H           -7.43108255659808       -0.28701005419293        1.64311623070551
H           -5.94670903426227       -1.18551324124896        1.34980902618945
H           -6.03297486045259       -0.04636708099504        2.69285357576632
H           -7.66620441457971        2.04576657062855        1.07295816571175
H           -6.41839195752745        2.40241053713676        2.25407116847084
H           -6.29878998924448        3.04334151145144        0.60151534830005
C            4.73780021459717        1.51790296514905       -0.82076584776132
C            3.87026360868804        3.51247899114267       -2.10188645693914
C            4.54218266632095        3.72436603912289        0.27253087059772
H            4.64934209962667        0.94820055848682        0.10233022124943
H            4.44430142162255        0.88939448739620       -1.65331864766298
H            5.78153723107748        1.78971516433732       -0.95812907118598
H            3.45288162764819        2.88731716883759       -2.88288762131986
H            3.28148326340038        4.42475756440399       -2.03569540375536
H            4.88682246413550        3.77785002595065       -2.38080722710851
H            4.59359998289562        3.26257172588072        1.25558573404735
H            5.55961671931600        3.93108816770517       -0.05071539656392
H            4.02102966017854        4.67608611042813        0.34200500499638
