69
 energy: -113.779690964058 gnorm: 0.000628889392 xtb: 6.5.1 (b24c23e)
Si           0.29346408223037       -1.24492579049312       -0.51917613587305
O            1.61983185954011       -0.63179236280102        0.20564023345713
C            2.50363958007460       -1.24862807450914        1.11349147803442
C            3.34553530930736       -2.30703653150336        0.44947611501343
H            1.91885986451162       -1.70282682057309        1.92207754769675
C            3.78019663145903       -2.14078329552526       -0.85726818281927
C            3.70302206769417       -3.45331671017134        1.14516321331780
C            4.55355317691573       -3.11247262763322       -1.46626651299220
H            3.49317919789950       -1.25683194503343       -1.40592321891705
C            4.48234337777313       -4.42106229840630        0.53846462772235
H            3.35416496477021       -3.59268902949804        2.15778011573307
C            4.90824314362181       -4.25322681911522       -0.76846085637961
H            4.87552643779730       -2.97845765818090       -2.48840036323700
H            4.74960626058577       -5.31360868475655        1.08415950533969
H            5.50907156419187       -5.01439056284867       -1.24420334367881
C            3.40410225852238       -0.14334213413071        1.69649795477691
C            2.60574911089015        0.86363136515284        2.35963613954107
H            4.10128971107875       -0.59462236522802        2.40651992736289
H            3.97359425623852        0.31370645859850        0.88342162043104
C            1.89506405492030        1.67578240951513        2.87706205297605
H            1.29649065264460        2.39103069795485        3.35632500026208
Cl           0.29135322486531       -2.02583473221141       -2.41205664043265
Cl           0.25049660370057       -3.13531869138804        0.48603059384994
O           -1.15190333095699       -0.89617905019432        0.32994579795849
O            0.10072336606771        0.38009740430402       -1.38903968370014
C           -2.04538723195558        1.28745537546753        0.07007177541866
C           -0.79876312989467        1.95796141139735        0.07118256769840
C            1.43006216244356        2.17290418376348       -0.77684404491364
C           -3.33461675485211       -0.68979486050475       -0.42295243853332
C           -4.52814800619649       -0.00351231186241       -0.45533195823099
C           -3.26653846647698        1.98041898022542        0.17702700529299
C           -4.45701903021882        1.36143108520513       -0.06040887336730
C           -0.59200088102202        3.17331050663057        0.75183662457950
C            0.59187875940822        3.84297588187392        0.66723195790481
C            1.66392477033266        3.37134636654879       -0.12613623726749
H           -3.24127856652383        3.03713360558886        0.38526340435166
H           -5.36042589866443        1.93818450487542        0.01635560752368
H           -1.38288789789221        3.54744865882490        1.38042105915031
H            0.70473065040953        4.75620470489284        1.22324103766398
C            2.95691097687134        4.16587354891530       -0.25911519728051
Cl           2.52818388533448        1.41561392225267       -1.83376298951573
N           -2.16216175651554       -0.08277355375353       -0.08596635814814
N            0.26060023137450        1.50168832459303       -0.67594908298211
Cl          -3.13719197588603       -2.36101092893719       -0.74361225095490
C           -5.84995872210233       -0.63348395775983       -0.87456546310391
C           -5.73288689983481       -1.17146774685057       -2.30745273205960
C           -6.22774632579819       -1.75910772433077        0.09828512726202
C           -6.99569615610698        0.38654767055592       -0.86297006998843
H           -4.99448810191508       -1.96059886110844       -2.38031111048633
H           -6.69198997161317       -1.57163078144233       -2.62653660746314
H           -5.45125088265366       -0.36961544129047       -2.98617037518544
H           -7.19772762601210       -2.16666379859197       -0.17510543213101
H           -5.50256452465538       -2.56367199833129        0.07926780269095
H           -6.29013237237718       -1.37205860945656        1.11289712631879
H           -7.90477864980273       -0.10414394274139       -1.20221506127602
H           -7.18177273609411        0.76671718426198        0.13846349011832
H           -6.79515952763009        1.21637409297942       -1.53617663699860
C            4.15529637430109        3.32238436265606        0.19711842398245
C            3.13605628815070        4.61629405313610       -1.71685474253197
C            2.93634388228450        5.42823144795656        0.61198098686189
H            3.98341193169662        2.94905735133527        1.20423973480255
H            4.32810424263268        2.48263113711239       -0.46547623835133
H            5.05208114361993        3.93728427750569        0.20189281577177
H            3.24247085560785        3.77109537095325       -2.38712555820342
H            2.27962685014789        5.20669245191306       -2.03555171935293
H            4.02823141081258        5.23177264263122       -1.80051921276043
H            2.83140649305023        5.17836501223954        1.66477027828484
H            3.87983810719873        5.95465839820442        0.48932958660447
H            2.14042465067191        6.10686585113498        0.31479599336615
