69
 energy: -113.774716492758 gnorm: 0.000518733547 xtb: 6.5.1 (b24c23e)
Si          -0.27399770860966        1.24583766612499        1.24343182465832
O            0.09161383943170        2.51847650245346        0.31357142531001
C           -0.07027246702545        2.73553836844510       -1.07454367508433
C            0.97850456488627        1.96530663011168       -1.83269316275053
H           -1.06466958775847        2.39535855587618       -1.37895817926931
C            2.32057350295103        2.13874475311027       -1.51999798233321
C            0.62380589295877        1.05198925242336       -2.81526976602315
C            3.29361948792409        1.41876974554971       -2.18882059028947
H            2.59762907101938        2.83494072148136       -0.74248653399381
C            1.59616034327970        0.31948321663244       -3.47321364253576
H           -0.41894561714878        0.91128754007688       -3.05988414518491
C            2.93267421217222        0.50422154452141       -3.16370820899846
H            4.33530859778848        1.57386067118726       -1.95106012815340
H            1.31006910692510       -0.39512189853573       -4.23166359084624
H            3.69125362643469       -0.06016394994649       -3.68677548848671
C            0.04173339404023        4.24853880902436       -1.32596963209635
C           -1.13695221920702        4.93121518035418       -0.83705477637349
H            0.15424201426603        4.42485125343317       -2.39945699977885
H            0.92257078902040        4.62951630447580       -0.80520521574797
C           -2.13378265842637        5.44939967693503       -0.42621215347345
H           -2.99417647744533        5.92463405312287       -0.06068384308953
Cl           0.55348382568178        2.18360136094237        2.92507705225566
Cl          -2.13156010314865        0.90473811984918        2.11019323175800
O           -0.82651820211154        0.31398467489352       -0.32089849946771
O            0.75162860226419       -0.08096898230331        1.56288736202750
C           -0.87430991375926       -1.97415476680419        0.07236624529853
C            0.53804882828895       -2.02383174679043        0.19003237483809
C            2.67025462093202       -0.99191807004791        0.65466107310561
C           -2.87587385928608       -0.74282040591150       -0.39172468611589
C           -3.69820453180852       -1.84672492651124       -0.25550326093109
C           -1.67741326457256       -3.12667674949897        0.16783433661469
C           -3.03310123521442       -3.05964284447871        0.03805984670558
C            1.25922457823794       -3.15754880655546       -0.22644714665942
C            2.62093993582398       -3.18930499437928       -0.21740929864783
C            3.39391668736069       -2.07064813890568        0.20251625265623
H           -1.20368922620828       -4.06247095607933        0.41269388047040
H           -3.60388231713704       -3.96171657784323        0.16499104377122
H            0.70523602078647       -3.99874547687556       -0.60889786224020
H            3.11568426092480       -4.07865204623792       -0.56148015599230
C            4.91711583884178       -2.12531584390270        0.19316891886462
Cl           3.34269788577101        0.45881385703992        1.26132755663141
N           -1.53710134992139       -0.80486947690107       -0.20555336263323
N            1.30403117242460       -0.98906754367996        0.70157204811384
Cl          -3.40295928537032        0.80920457066287       -0.86618418731145
C           -5.21304555116230       -1.78556472665080       -0.39433455351767
C           -5.78468832101201       -0.79027269909022        0.62564382015547
C           -5.59661288693086       -1.38275903046605       -1.82579528833341
C           -5.86178121423675       -3.14689061676225       -0.11290335427785
H           -5.45725816230714        0.22425406317109        0.43390843452041
H           -6.87096750863791       -0.80884258328846        0.58386226525659
H           -5.47099698990344       -1.06308545111387        1.63035689015545
H           -6.67839278273990       -1.40220890341421       -1.93095826071862
H           -5.24954849796371       -0.38550147905245       -2.06968763636363
H           -5.16884233380153       -2.08360525358934       -2.53968297460490
H           -6.94092431847097       -3.04552270664070       -0.19960771523235
H           -5.54259842566009       -3.89823882069700       -0.83140651386926
H           -5.64142350059530       -3.48885175799775        0.89520642950915
C            5.49289259538248       -0.99585184758047       -0.66963797729073
C            5.43838992941776       -2.01981666121128        1.63412361957436
C            5.43546034794598       -3.44821601455166       -0.38553561307239
H            5.08825453360117       -1.05337029671062       -1.67700101018005
H            5.26015763428980       -0.02297389901786       -0.25498201952179
H            6.57440388672451       -1.09461245918562       -0.72397979499551
H            5.18253975566499       -1.06729505813935        2.08311450844943
H            5.01692568168567       -2.81515258295470        2.24485636956229
H            6.52095175974169       -2.11941781218515        1.63850362639445
H            5.10783600073683       -3.58746265083857       -1.41292401731149
H            6.52274613291381       -3.42898246622972       -0.38332431910835
H            5.12138855903711       -4.29779811234340        0.21565178624747
