69
 energy: -113.777012202895 gnorm: 0.000528351919 xtb: 6.5.1 (b24c23e)
Si           0.14659545566900       -1.11024566573203       -0.32501860610152
O            1.62923167177761       -0.61229749430042        0.12845591318986
C            2.65900897689490       -1.17076781015766        0.91763015875239
C            3.02376340304952       -2.56160329297738        0.44961054875500
H            3.52102486929305       -0.50934214609200        0.72471025041949
C            3.21010759059211       -3.63682832153779        1.30588963197212
C            3.18109161027913       -2.75721411042935       -0.91803716493766
C            3.53409066098446       -4.88351970443014        0.79884415082453
H            3.08769467596011       -3.52306362500585        2.37093303022556
C            3.49457038653116       -4.00374448165218       -1.42423959534527
H            3.03565857010134       -1.92471286037263       -1.59069249920418
C            3.67291674312826       -5.07326335145713       -0.56406297947564
H            3.66704100604699       -5.71404329268399        1.47655710043449
H            3.59582180185056       -4.13886401899024       -2.49077735048228
H            3.91407629461343       -6.05068899198798       -0.95511828563015
C            2.29410776836209       -1.05933514017465        2.40452988912195
C            1.95262422186082        0.30965722416200        2.72357971420994
H            3.14545883374463       -1.37059141735278        3.01370163368772
H            1.43550690259977       -1.70228415253245        2.60969728388979
C            1.67328599853831        1.45520951577721        2.92857026036235
H            1.41924667860987        2.44755859193196        3.15235651025522
Cl          -0.22450310645621       -1.97896551430297       -2.14196526706461
Cl           0.02218409212260       -2.92618082215653        0.80838825649535
O           -1.13294569765379       -0.54541670605725        0.66534255754533
O            0.01174743585955        0.49294398262311       -1.27245656443666
C           -1.87600946136329        1.67754636514311        0.31085935104075
C           -0.57471784058545        2.21704840243760        0.17462970659245
C            1.61174204998600        2.09899697276096       -0.78957050434489
C           -3.36190044346184       -0.20924818385004        0.10651309562589
C           -4.49152672984689        0.57893894873345        0.10573018626680
C           -3.01837340269656        2.48741241904028        0.44421392349597
C           -4.27297234801742        1.96201601864548        0.35794716646382
C           -0.18746077095755        3.43140989429333        0.77043050797500
C            1.08205900061946        3.90987164230792        0.63589846260358
C            2.05396816805618        3.24113975112098       -0.14463988487169
H           -2.88430581088938        3.55141574350275        0.54845453399998
H           -5.11471829339421        2.62401005568668        0.44597898913487
H           -0.90091873719797        3.94644408647079        1.39204848835295
H            1.34418104903585        4.82133103234260        1.14287774727937
C            3.48524225142181        3.75303853702243       -0.23463172077155
Cl           2.52283307419884        1.21527365364796       -1.92562935042364
N           -2.11751934122772        0.31565209415039        0.28607007914991
N            0.36575737365418        1.60515138425089       -0.61893708320270
Cl          -3.33812790138003       -1.91238400963608       -0.06743723335745
C           -5.89445286742215        0.03632494425514       -0.13501774389911
C           -5.95865336395628       -0.64298822423817       -1.51019110429173
C           -6.27120001217408       -0.95255151774160        0.97724804191505
C           -6.94561819204167        1.15378957047245       -0.13084237849018
H           -5.29542702136558       -1.49748055046281       -1.56844512187654
H           -6.97278820693632       -0.98561329229480       -1.70033003542714
H           -5.68193351335515        0.06370567291952       -2.28955356034670
H           -7.29598208797707       -1.28672725767601        0.83630409141668
H           -5.62552557527012       -1.82258818979082        0.97399078966927
H           -6.19689239289595       -0.46899532952405        1.94883670841793
H           -7.91970859493213        0.71871019678737       -0.34121984032274
H           -7.00607160349490        1.64181655216935        0.83893206379853
H           -6.73990234502660        1.89490262222034       -0.89945587759149
C            4.44674617788383        2.64990158988204        0.23317192326033
C            3.80996124103768        4.18932764520883       -1.67020527361836
C            3.71036845190961        4.96710938571713        0.67577430840851
H            4.14848494584383        2.28822161625740        1.21555277934651
H            4.46075094609820        1.81251507121418       -0.45475754441654
H            5.45634760841591        3.04780321734031        0.30095456910434
H            3.74530584487464        3.36062066224800       -2.36555464127775
H            3.11869985915298        4.96594057512069       -1.99057651503823
H            4.81979810564838        4.59017788438398       -1.70877445418327
H            3.51068535882432        4.72326709572242        1.71626796586972
H            4.75106833125024        5.27329993852313        0.60126406688305
H            3.09746917558881        5.81311691909078        0.37405774421756
