69
 energy: -113.770674295142 gnorm: 0.000802714918 xtb: 6.5.1 (b24c23e)
Si           0.37050037561053       -0.60608406935322        0.43021333537818
O            1.31572578937273       -1.83684889514756        0.86213100929258
C            1.52736010763886       -3.14483795832811        0.39291096284430
C            2.87555843378424       -3.24081928806400       -0.27514588537187
H            0.73988375618671       -3.41674595508090       -0.31926019736284
C            3.89744044356470       -2.36698506572484        0.06879310848014
C            3.11052671055610       -4.22535274315935       -1.22624147804834
C            5.13762472136841       -2.47294961556126       -0.53562570928780
H            3.70875879428667       -1.60020837765097        0.80475237735089
C            4.35351877886391       -4.33528455857559       -1.82291539351673
H            2.31383787310838       -4.90199091786775       -1.50173928023879
C            5.36936687063867       -3.45874095175026       -1.47936088122153
H            5.92586374476662       -1.78495081440750       -0.26632644651699
H            4.52866856397111       -5.10372755148989       -2.56179024976086
H            6.33860322797280       -3.54306057582512       -1.94887396586387
C            1.45894302560431       -4.09528945077757        1.60395978708481
C            0.12214423250265       -4.12138516942982        2.15629718502659
H            1.75174540817280       -5.09904122611009        1.28614610065098
H            2.16161211405371       -3.74057873198511        2.36265528093253
C           -0.99659594432974       -4.10649195928260        2.57995489552703
H           -1.96887384381106       -4.11196490289114        2.97445819894471
Cl           1.36370361856710        0.52264476015631        1.96897796332067
Cl          -0.72442980473586       -1.71990302748692       -1.12775805861519
O            0.64890351593627        0.55507530663671       -0.80776354168920
O           -1.08361983580725        0.03162094833794        1.09574105156848
C           -0.73636460103238        2.39595277343917       -0.37539087863444
C           -1.93002684214005        1.61624571841415       -0.40452725018811
C           -3.20004336849753       -0.33975191005640        0.20433761232156
C            1.66500761993012        2.60422302496331       -0.38750608394391
C            1.63386387652766        3.96838920152841       -0.18339366828196
C           -0.79217032861803        3.79618586054736       -0.27832939786830
C            0.34014770560627        4.54993158743248       -0.16825759347863
C           -3.07424572946694        2.06690146953369       -1.08391748275939
C           -4.20376636972641        1.30516871761063       -1.16475952366085
C           -4.30200576713817        0.03763674879087       -0.53554589569609
H           -1.76121436237701        4.26324718556091       -0.21289493966853
H            0.23804212092621        5.61309672748997       -0.04827323839306
H           -3.01576391977173        3.00552945257189       -1.61025331977190
H           -5.03308800953256        1.67818821280664       -1.73779210148337
C           -5.54693265589083       -0.82626328245738       -0.68284867646685
Cl          -3.09387651766204       -1.73748106872551        1.16879616046774
N            0.53190137758849        1.86787666384941       -0.49980320585848
N           -2.08175108406605        0.42359835461694        0.27059330214000
Cl           3.07389343746495        1.67469546859336       -0.59885516113754
C            2.88410350505717        4.81287452234839        0.02008910317545
C            3.67252963058976        4.27765276963823        1.22370163932551
C            3.74637880146780        4.79395376907458       -1.25019102370581
C            2.53581639223638        6.27669480029252        0.31815533223118
H            4.05056669794027        3.27811415343230        1.04858095316419
H            4.51776542856399        4.93097958380888        1.42565352239193
H            3.03603345564590        4.24949034720407        2.10456870698170
H            4.60972176023500        5.44002967106846       -1.11268638131649
H            4.10010013216953        3.79544887690165       -1.47852283936460
H            3.17275917367565        5.16178969662825       -2.09824920609483
H            3.45690976919876        6.82750813058503        0.49274667805638
H            2.02609807874738        6.74591989304170       -0.51995593349153
H            1.92330779131342        6.36225452830178        1.21213872942392
C           -5.16039138375200       -2.19075447698269       -1.27108644773272
C           -6.23350444387583       -0.99410326516604        0.68023247659153
C           -6.56664221533006       -0.19168921729902       -1.63696374783040
H           -4.62194200055353       -2.05575213879089       -2.20601476921867
H           -4.53169913243640       -2.75956150318901       -0.59701119790962
H           -6.05837456006136       -2.77103281509517       -1.46856846368106
H           -5.59256398242117       -1.50299549023510        1.39057163393093
H           -6.49982809120574       -0.02126263970536        1.08788001448264
H           -7.14276580424803       -1.57756399838364        0.55975120324033
H           -6.14312528860622       -0.04665492861826       -2.62760758087553
H           -7.41857850911965       -0.86032847285671       -1.73449223892466
H           -6.93559946517489        0.75729008830661       -1.25527998938455
