69
 energy: -113.779698044513 gnorm: 0.000478846761 xtb: 6.5.1 (b24c23e)
Si           0.06541106296904       -1.23766938142037       -0.22483672081768
O            1.49246867224799       -0.73547287936127        0.38503927303382
C            2.37405831535099       -1.40370975813644        1.25752729645979
C            3.05235853989367       -2.57142606625828        0.58966333007704
H            1.80833180130219       -1.75971663169920        2.12666053507111
C            3.39129251131631       -2.51162128584019       -0.75411999080831
C            3.35382246226160       -3.71387622920071        1.31776502364935
C            4.01271960675503       -3.58439786505292       -1.36726586867124
H            3.14721611819793       -1.62950592490071       -1.32635130162133
C            3.98237784497188       -4.78307347677490        0.70636411667561
H            3.07878537676610       -3.76950243630934        2.36090685078507
C            4.31155591891000       -4.72131973677938       -0.63729082691358
H            4.25948036047195       -3.53196170252685       -2.41738423922316
H            4.20612033666750       -5.67178964095036        1.27799621954993
H            4.79329736036734       -5.56125315290693       -1.11596912381883
C            3.42265150691662       -0.37475698988322        1.72007916891207
C            2.78136857185418        0.73057703329338        2.39686377307783
H            4.12813234382791       -0.86735439676186        2.39327781484124
H            3.96547251641992       -0.00754789378178        0.84573110232751
C            2.19692169911553        1.62770804531201        2.93173820424132
H            1.70554865202378        2.41503904788686        3.41983185978209
Cl          -0.15720095193303       -2.08104193063945       -2.07745280646246
Cl          -0.09243205278788       -3.07529850545627        0.86218349651502
O           -1.27383230849828       -0.70857222742048        0.70105287439996
O           -0.02102826149470        0.36755603776272       -1.15138900253299
C           -1.95884722432372        1.54355665779784        0.40366790950939
C           -0.65343303894408        2.08043392762412        0.29647504975306
C            1.52175765023068        2.03321708710313       -0.70317096367349
C           -3.47014200550022       -0.30662888597871        0.07567958408487
C           -4.58815381183557        0.49729838432488        0.09166596498083
C           -3.09390084400441        2.36133927475178        0.56191354648662
C           -4.35386525582370        1.85988655885116        0.42690443860866
C           -0.27752093110636        3.28961476717428        0.91251574496446
C            0.96008406764899        3.82849872636425        0.72443450219776
C            1.92106758728164        3.22183715267219       -0.11791297509426
H           -2.94880692908224        3.41601865425340        0.72671199600712
H           -5.18767754464075        2.52813821455744        0.54010556642172
H           -0.98112593112805        3.76534566452726        1.57528194603457
H            1.20343572297089        4.74268516292863        1.23524904142005
C            3.27402426858963        3.87521382423505       -0.37009763834430
Cl           2.46050643038298        1.13111735696610       -1.79925673490084
N           -2.22278774720554        0.18794946227888        0.31129401034966
N            0.30009414708622        1.49089490881123       -0.49834488749712
Cl          -3.46388166797448       -1.99945697623846       -0.18700489583384
C           -5.99225006344921       -0.00813002113541       -0.21310942903894
C           -6.03004626550063       -0.61052862431844       -1.62458802452951
C           -6.41276523429760       -1.05063264542690        0.83249089429898
C           -7.02576060582818        1.12478748759065       -0.17341139805312
H           -5.38439565583541       -1.47616142569407       -1.70876080622478
H           -7.04524307047909       -0.91831659463576       -1.86261085971840
H           -5.71411709969349        0.12995009101864       -2.35609380659105
H           -7.43685683581203       -1.36318318279863        0.64442580391704
H           -5.77742859434741       -1.92744385943013        0.79973606059487
H           -6.36099764713579       -0.62167299713663        1.83074138471615
H           -8.00026060514596        0.71945753788409       -0.43490890674618
H           -7.10593751882298        1.55722470884936        0.82081711752561
H           -6.78676632730803        1.90503347911639       -0.89178476856793
C            4.41436219358641        2.92959254802122        0.03077048461300
C            3.38813422976150        4.26113193806367       -1.85266479551367
C            3.44391732172220        5.15847031615133        0.45291778280759
H            4.28694148745839        2.61224269877345        1.06327104939638
H            4.45001351332643        2.05351276427392       -0.60577711254216
H            5.36535663045986        3.44908155751376       -0.05901819210201
H            3.35219654825350        3.39014961184842       -2.49699394197164
H            2.57763251373447        4.93191031564110       -2.12976992657812
H            4.33185158683002        4.77285785900008       -2.02395230326117
H            3.39013708647586        4.95210166474402        1.51892416970440
H            4.42463306616139        5.58045091484888        0.24659444470033
H            2.70155239936697        5.90680088204055        0.18605681515087
