69
 energy: -113.776787344992 gnorm: 0.000614707925 xtb: 6.5.1 (b24c23e)
Si           0.23030809093073        1.02840033382812       -0.87353922522066
O           -0.36421244808987        1.98489776289198        0.28176202150237
C           -1.22857055764336        3.09623297120996        0.21866762860616
C           -2.61369247771894        2.66482448294594        0.62779283862446
H           -1.24948949073647        3.48434997778201       -0.80627424366619
C           -2.77637800321641        1.83192697557547        1.72798741508213
C           -3.72795816635313        3.05768262794421       -0.09994533814177
C           -4.03724358239568        1.39894944748896        2.09658557214822
H           -1.90293945140533        1.50683204986315        2.27370450057724
C           -4.98971648359436        2.62494628715626        0.27080586741615
H           -3.60195652585650        3.68967093969255       -0.96680458606445
C           -5.14677887529310        1.79547249018768        1.36832067776507
H           -4.15506879124232        0.74720296346099        2.95048247278953
H           -5.85164343740411        2.92849349341828       -0.30515561715730
H           -6.13124784717789        1.45204909775610        1.65132038687719
C           -0.67488951807338        4.17829548412909        1.16257616616568
C            0.65275376278711        4.57101773265056        0.74019121450886
H           -1.34571330087895        5.04100772501029        1.14941287205851
H           -0.62916821671026        3.77524199079612        2.17739701611623
C            1.75313160402578        4.84166993442090        0.35718760063878
H            2.71679193775380        5.09684636517300        0.03136306462070
Cl          -0.76419811639276        1.87900841223002       -2.57669492715900
Cl           2.11293185760174        1.29340503352866       -1.71059158934771
O            0.93375068912486        0.11394341152091        0.56998272565941
O           -0.50514108743100       -0.43256147883602       -1.36892729426790
C            1.56410407624313       -2.02087213547661       -0.10821874444263
C            0.20730744581898       -2.40274134943602       -0.24490680399920
C           -2.11548318255929       -1.76815449922380       -0.37042202346829
C            3.18438719184201       -0.39451145648252        0.58426795661494
C            4.26046015487907       -1.22603964800479        0.32559575658150
C            2.63470689374849       -2.90402564631923       -0.34229997221778
C            3.92814662333182       -2.51095738832103       -0.16113966366064
C           -0.22953668624285       -3.71839381222682        0.00144879859821
C           -1.55438314812424       -4.01309660085333        0.12357243293829
C           -2.55902852687676       -3.00871063096444        0.02849946620106
H            2.41477662717080       -3.88558516242540       -0.72735975558170
H            4.71157821462011       -3.20896918532063       -0.39538693327539
H            0.51131608476598       -4.48393946769218        0.16206450056771
H           -1.83924207102229       -5.02830615129438        0.33089963395537
C           -4.01701094566238       -3.32048071965726        0.33958008864158
Cl          -3.11669051738087       -0.41685167728229       -0.71293114017581
N            1.90676298135243       -0.77033853208350        0.34377343293600
N           -0.79523161915165       -1.50443842019522       -0.57282868279656
Cl           3.28657689778196        1.15477836330996        1.28481934288320
C            5.70917352190284       -0.80345102476803        0.52524795088694
C            6.00077691983877        0.43876879783069       -0.32851745711310
C            5.97740515289702       -0.52058608043395        2.01024494495091
C            6.68581205792195       -1.90089944452660        0.08400487413720
H            5.43082654553479        1.29817822202024        0.00234100871695
H            7.05781739103563        0.68525512398233       -0.26603205659901
H            5.74940935635227        0.24475946526071       -1.36838416509651
H            7.02410059698602       -0.26106601849833        2.14696456010151
H            5.37132700707424        0.29943677420886        2.37663608560519
H            5.76154035626271       -1.40558453323102        2.60497105690245
H            7.70255650671350       -1.54391728269243        0.22897302866970
H            6.56639000302328       -2.80458761763067        0.67700542754699
H            6.56494463379265       -2.13732520537637       -0.97008276183583
C           -4.51898935186231       -2.38818494031457        1.45139266922457
C           -4.87040883319894       -3.16070629645896       -0.92627437346587
C           -4.19576841694363       -4.76050658780531        0.83745611419806
H           -3.90085223114522       -2.50082631710758        2.33942713726562
H           -4.49912159894452       -1.34905586781684        1.14497437051977
H           -5.54277393633530       -2.64773483220362        1.70954433650497
H           -4.87322723422081       -2.13588699239001       -1.27781766608618
H           -4.48653994417302       -3.79823865393242       -1.71934345156080
H           -5.89587930115009       -3.45322957308679       -0.71491093190176
H           -3.59941627118696       -4.94923488741032        1.72665127651571
H           -5.24014518727957       -4.91502759052095        1.09772797053420
H           -3.93895780203684       -5.48358102898328        0.06747014095007
