75
 energy: -120.114307557981 gnorm: 0.000853911649 xtb: 6.5.1 (b24c23e)
Si           0.31015810231415        1.69380387522162       -0.24396550851993
O           -1.28195072518712        1.48092433312941        0.01922167392358
C           -2.23748031282414        2.18392963939082        0.77856163764780
C           -2.92555099406187        1.18635588823096        1.68540813092401
H           -1.71642873809296        2.92984416471389        1.39600059556320
C           -2.15017438773630        0.20581639547189        2.29611286406470
C           -4.29226179905326        1.20252782518604        1.93266076201355
C           -2.72806037281623       -0.74864983828855        3.11102640843668
H           -1.08373017406701        0.20056586759357        2.13178160429873
C           -4.86987096552580        0.24913779840345        2.75578952777378
H           -4.92337777847074        1.95708718376680        1.49020059068481
C           -4.09343795926201       -0.73526546714328        3.33949375800524
H           -2.10868389164574       -1.49922400793254        3.58004668184940
H           -5.93489288864733        0.27585851890329        2.93520596164396
H           -4.54797845342654       -1.48072094458977        3.97561395815383
C           -3.19146364034708        2.92062892178644       -0.17739851716668
C           -2.43214690854991        3.70152208807002       -1.13249329692774
H           -3.83755425594956        3.58652177908666        0.39894219536717
H           -3.80533377672936        2.19248190489966       -0.71578148738324
C           -1.76061396144821        4.30323255490302       -1.91826814404630
H           -1.18012525563293        4.84409903796408       -2.60393052504853
Cl           1.19086238774094        2.62031621590366       -1.84217431346412
Cl           0.61594396243345        3.32257369175153        1.11891826910812
O            1.24060844485996        0.71772540262490        0.83277642337915
O            0.22969545494441        0.22890010541423       -1.39032877788834
C            1.59972877022840       -1.50442676352725        0.12800630790008
C            0.18451244833468       -1.66591617325082       -0.03664693303214
C           -1.75329328249714       -0.96732997950730       -1.26861568972332
C            3.42532588672504        0.07449066216769        0.33676192886344
C            4.37833073066802       -0.89596666512248        0.12079479252968
C            2.54456423473306       -2.52270721987851       -0.06992883050923
C            3.88589053930582       -2.21378819997951       -0.04841290097031
C           -0.61102570198866       -2.62063951791054        0.62072276865171
C           -1.94179954031439       -2.72658038831904        0.29481216079540
C           -2.55470267696485       -1.94485841783599       -0.70926363326788
H            4.58064372896885       -3.01240985338006       -0.23579190069551
H           -2.53444751757155       -3.43357793417214        0.84742182231487
C           -3.99701559338267       -2.19034961056711       -1.13203180265397
Cl          -2.23141995379598        0.13831837681996       -2.47821209296604
N            2.10344291713700       -0.24358771841380        0.40661781390610
N           -0.45956390283099       -0.81740997594596       -0.91196271888682
Cl           3.72744506638234        1.74255814054844        0.56681272203780
C            5.86933313312654       -0.59569321161942        0.02814598413039
C            6.12999385818620        0.36321343288417       -1.14203458468153
C            6.36431275729332        0.01061811560458        1.34869178760546
C            6.69445777053023       -1.86335018131640       -0.22755786939154
H            5.65655334091153        1.32509769167186       -0.98658576334757
H            7.19971072961226        0.52349076247287       -1.25155437770710
H            5.74838678276348       -0.06303193910597       -2.06710902466266
H            7.43618869519528        0.18255651602115        1.29145547028983
H            5.87943481052831        0.95540568204631        1.56242672237959
H            6.16856970777873       -0.67396113946708        2.17110983811578
H            7.74660807732500       -1.59250509234607       -0.27222319728219
H            6.57303564182002       -2.58635855170069        0.57537813331491
H            6.43176755631922       -2.32443222484333       -1.17642931586036
C           -4.84533662172586       -0.92732747636041       -0.93455773237141
C           -4.01942055535092       -2.62758669795349       -2.60428498259307
C           -4.64844848572350       -3.30500906185075       -0.30451211458793
H           -4.75667383869245       -0.57535298873241        0.09046694561440
H           -4.54130706602987       -0.13385524939168       -1.60671658094347
H           -5.88977980801047       -1.15588565291343       -1.13357078088978
H           -3.61847071418459       -1.85599312565374       -3.25197215019904
H           -3.43081034735703       -3.53300406286483       -2.73653384871677
H           -5.04226110859456       -2.83427315897410       -2.90919710267611
H           -4.69394086244580       -3.03552618341460        0.74804922497275
H           -5.66743931606909       -3.45265040964667       -0.65439859943910
H           -4.12029987999934       -4.24855246438450       -0.41865777927677
C            2.13402396422017       -3.91877026301114       -0.42992232490472
H            2.21493398983673       -4.57650474545733        0.43365406805599
H            1.11378273443878       -3.94840851453666       -0.79901225681886
H            2.79677619386425       -4.30507271776831       -1.20079095298989
C           -0.06285694212311       -3.43932007541868        1.75051985043079
H            0.91006131164773       -3.07417455844433        2.06450119456708
H           -0.74631330042353       -3.38731489165292        2.59557420914327
H            0.02517352538013       -4.48650925805396        1.46703762403190
