75
 energy: -120.111901525090 gnorm: 0.000255913671 xtb: 6.5.1 (b24c23e)
Si           0.15182207888046        1.19245514704792       -0.86111931918769
O           -0.75675708419400        1.92989566356594        0.24950239315383
C           -1.73335395183335        2.93637404531676        0.15679920049268
C           -3.00139144530514        2.45386852111422        0.81389881372726
H           -1.92109322021467        3.16889056580815       -0.89890551951011
C           -2.93563726953959        1.59602326703232        1.90413822169055
C           -4.24137311339841        2.86276462735653        0.34197353831000
C           -4.09529992681298        1.15154612502436        2.51294866279680
H           -1.96777557965216        1.27026630379552        2.25433987966087
C           -5.40055260822185        2.41941918933435        0.95422334886668
H           -4.29509106045977        3.52237481664861       -0.51230589086101
C           -5.33002339714833        1.56310767724377        2.04022396106706
H           -4.03640647667210        0.48255006866022        3.35930792163185
H           -6.36180840544549        2.73863857485021        0.57886972953442
H           -6.23551841974455        1.21346280069902        2.51405082041632
C           -1.20350785240453        4.20048818428167        0.86153866260815
C           -0.01781180324158        4.68295728226286        0.18641486173698
H           -1.98157035159708        4.96790666426852        0.85298170358215
H           -0.95916314259449        3.94815214868548        1.89681726768286
C            0.96628289204010        5.02327042074443       -0.40248820437659
H            1.82708064651771        5.33415084165077       -0.91460065581256
Cl          -0.75896647430104        2.01127816674088       -2.63915961539622
Cl           2.04860064061703        1.73898157976463       -1.49828652477467
O            0.84496819880905        0.33912726743310        0.63322090400705
O           -0.29829229876396       -0.34792441919657       -1.47013661718225
C            1.65334649307135       -1.72717953923565       -0.08406669605688
C            0.29937584586871       -2.19315636266392       -0.12402061960240
C           -2.01542615070310       -1.60685600703812       -0.52921426140224
C            3.13084448775880       -0.00821015516316        0.70742319489776
C            4.26537379688530       -0.72910494267757        0.38457044714139
C            2.77723051909335       -2.45475367508240       -0.51500441729084
C            4.03429123331649       -1.94425100368351       -0.29488234170444
C           -0.14031141836830       -3.40160455854192        0.44057434999154
C           -1.48754349901542       -3.68206143810844        0.47344476337111
C           -2.48225766157840       -2.78069888003030        0.01750585197527
H            4.87076747376956       -2.50374070173450       -0.67473386612910
H           -1.78916276740889       -4.60617117053618        0.93252595972966
C           -3.96395335968176       -3.11038814996040        0.15222182897464
Cl          -2.98362453100670       -0.32065215294285       -1.11325046313905
N            1.89100730778370       -0.47068860397112        0.43176423996030
N           -0.68066694728377       -1.37744352844597       -0.66555993979683
Cl           3.10597113158899        1.49293903692935        1.51433291350571
C            5.67679842365851       -0.24280071366195        0.68242105568248
C            5.92607357473209        1.08879493156360       -0.03921196824566
C            5.86520891886201       -0.08526692815812        2.19808672532454
C            6.73641797609774       -1.23770452128935        0.19257680098076
H            5.29983200074777        1.88117236814282        0.35222897921618
H            6.96575716497478        1.38242448859272        0.08328619205572
H            5.71603129174927        0.98358165506444       -1.10076137309193
H            6.88295402370911        0.23487276016143        2.40665190872953
H            5.18507734083722        0.65008634789648        2.61126790603085
H            5.69446605721842       -1.03668083962513        2.69764990906150
H            7.72113536231882       -0.86012807960769        0.45759229897154
H            6.61663485339797       -2.21086034784414        0.66312034783718
H            6.70581123052834       -1.34905298000956       -0.88827750077144
C           -4.64832091431816       -2.08407953383670        1.06502159898854
C           -4.61842029875373       -3.12339997875429       -1.23657996957860
C           -4.18850499125009       -4.49582796007717        0.77171097900533
H           -4.17327531132719       -2.08002003647277        2.04331377721349
H           -4.59855383356922       -1.08176191009233        0.65619509113680
H           -5.69525997620295       -2.34867347685215        1.19133390011990
H           -4.58220271928192       -2.14752666308077       -1.70551244802737
H           -4.11181956584177       -3.83765972526492       -1.88198147187282
H           -5.66055038649063       -3.41962450837879       -1.14655407654069
H           -3.79229633223834       -4.54966499525453        1.78268287314822
H           -5.25783673321726       -4.68568221011727        0.82599976343159
H           -3.74340893576047       -5.27961066264654        0.16373525241662
C            0.80430114382921       -4.34665736578112        1.12050804108286
H            1.00977866115703       -5.20675502799484        0.48593829178677
H            1.74307036206105       -3.86059530717827        1.36581890750506
H            0.35042907082175       -4.71577570287243        2.03748538857662
C            2.62634509408931       -3.70770656806241       -1.32447313051080
H            3.20558022863108       -3.60914308892260       -2.24081197838549
H            3.01006308267818       -4.57168602705646       -0.78523645663740
H            1.58873660674067       -3.88304608977536       -1.58919810292695
