75
 energy: -120.114655298876 gnorm: 0.000605528170 xtb: 6.5.1 (b24c23e)
Si           0.41526166359713       -1.31254543861122       -0.38391770563619
O            1.75497085360935       -0.63124102537626        0.24823277478835
C            2.69992927795760       -1.18137831326967        1.13591306449582
C            3.54011162292567       -2.24178747288625        0.47245182678301
H            2.17100550827523       -1.61816676270344        1.99110171494351
C            3.90189284035165       -2.11760315699008       -0.86093965947541
C            3.96726608573568       -3.34795664331658        1.19347991246528
C            4.67334763178090       -3.09059771474273       -1.47021548320217
H            3.55949034200854       -1.26583613771674       -1.42838666350399
C            4.74387517154950       -4.31732813708935        0.58579710668034
H            3.67442595549354       -3.45550881060956        2.22764273216391
C            5.09786963573265       -4.19113833966886       -0.74704501958737
H            4.93882257355873       -2.98948762564787       -2.51219414334482
H            5.06451314398231       -5.17985306701462        1.15132616788619
H            5.69678920156280       -4.95385739391308       -1.22284917275225
C            3.59398817393106       -0.02854859705392        1.62865082795554
C            2.80901439744305        0.95481111415481        2.34077244148459
H            4.36399310742300       -0.43743531114358        2.28748422740772
H            4.07708546564916        0.43670674986931        0.76610644901879
C            2.11359515916142        1.74504619257036        2.90991710653766
H            1.52878814340946        2.44094955444707        3.43230344898004
Cl           0.29249871259827       -2.25298892173241       -2.20479221391764
Cl           0.47148088742945       -3.13796486037945        0.75542539960836
O           -0.98942662088270       -0.88443668359721        0.51314123924961
O            0.18161198262335        0.22124243574495       -1.38756588005392
C           -2.04502765303445        1.11652413181818       -0.16101666717106
C           -0.80771539852982        1.82176986014550       -0.01143929859727
C            1.42879575405911        2.09802017150010       -0.82942513281282
C           -3.14190689788403       -1.03407453350885       -0.35497390750984
C           -4.34582894473951       -0.46686697417569       -0.71064185857149
C           -3.25777109634560        1.72873940098780       -0.52076053549494
C           -4.36480547900864        0.94858588744778       -0.76217868987470
C           -0.61997207344121        2.96121453484549        0.79388853492989
C            0.56061117093126        3.65743877902430        0.71158440472311
C            1.61089553593147        3.29356167524904       -0.16076966964915
H           -5.26651244574322        1.44956987502641       -1.06499981475460
H            0.68358264761217        4.51010801085072        1.35571414305095
C            2.83852429646214        4.17861161132986       -0.33395188051817
Cl           2.56130818161384        1.38122957219048       -1.87995491375644
N           -2.06717301846305       -0.26224163139799       -0.03220465504721
N            0.28327109523526        1.39014707905922       -0.73505459501347
Cl          -2.81969049103045       -2.71058412200802       -0.24346372263086
C           -5.58363358211578       -1.28233479300489       -1.06386487735928
C           -5.29440982828444       -2.15704198241301       -2.29150106626876
C           -5.99782368806519       -2.14760161590517        0.13448340198665
C           -6.77993350710319       -0.38698253584346       -1.41129860203851
H           -4.51649138348239       -2.88373169380746       -2.09112389416840
H           -6.19588997849708       -2.69224372083394       -2.57932446501092
H           -4.97968649076181       -1.53647745753145       -3.12739817101608
H           -6.90691058071488       -2.69272217722631       -0.10661741412725
H           -5.22965947831844       -2.86563395891764        0.39421011078610
H           -6.19267857226363       -1.51892342277664        1.00045932480314
H           -7.63720943520871       -1.01884113108652       -1.63141076630926
H           -7.04949841788543        0.25809826757605       -0.57840550430591
H           -6.58181424726426        0.21856061755959       -2.29241982802012
C            4.11240540489600        3.43352859500847        0.08622493718271
C            2.93659067204375        4.62602297613255       -1.80051147047939
C            2.74828745260407        5.44523434613218        0.52608002081864
H            4.00313415049384        3.05465105591061        1.09989886202091
H            4.32643093328829        2.60523739620621       -0.57907844191555
H            4.95876572688788        4.11577965176208        0.05832233048865
H            3.06847703189132        3.78223709574042       -2.46823724680312
H            2.03536395825546        5.16194799596997       -2.09131448660395
H            3.78706014098711        5.29233889204577       -1.92228003383699
H            2.74211055652620        5.20206239046898        1.58544844081955
H            3.62217946278189        6.06316525709965        0.33450907310985
H            1.86701393488239        6.03259295501224        0.27988784101542
C           -3.35453152181943        3.20340203992318       -0.77491571835325
H           -3.85018289272623        3.70473414360180        0.05441992888353
H           -2.37468803931445        3.64759282651514       -0.91764691668338
H           -3.95072409195740        3.37773244674087       -1.66786824952782
C           -1.63964262901199        3.36000670235385        1.81861943212376
H           -1.15659925214497        3.44240938992372        2.79065883832120
H           -2.07090953385896        4.33183129067590        1.58592556590096
H           -2.43427437527632        2.62452919527734        1.89105280427413
