75
 energy: -120.114663894211 gnorm: 0.000315823260 xtb: 6.5.1 (b24c23e)
Si           0.19666080268020       -1.31210073265304       -0.13348768934769
O            1.64336051052903       -0.75671056292111        0.37340056934481
C            2.59298935603522       -1.37873909643907        1.20671329912439
C            3.25321724681633       -2.55091021074334        0.52815027453097
H            2.09234379015823       -1.72203477604355        2.11971571452153
C            3.49286210345540       -2.52849623271244       -0.83787695865341
C            3.63541000459250       -3.66101505178590        1.26838926624091
C            4.09600406057263       -3.60658181255626       -1.46001882743880
H            3.18569828246629       -1.67189592794139       -1.41847327370268
C            4.24507145899101       -4.73547208332250        0.64734288266647
H            3.43715741674443       -3.68775014680884        2.32999355922631
C            4.47514134572456       -4.71123609436273       -0.71801301091685
H            4.26546046120519       -3.58377278761992       -2.52643189280687
H            4.53109572424354       -5.59947995208330        1.22912208816113
H            4.94199503884338       -5.55567355705114       -1.20355233366772
C            3.64577812146932       -0.31739493322272        1.57575618626071
C            3.03673717012272        0.76602298493260        2.31437186197527
H            4.42393338379180       -0.78876252840342        2.18104286346780
H            4.09608066874398        0.06677635090825        0.65739225703456
C            2.48200405390486        1.64216378643949        2.91191832632547
H            2.02219484095854        2.41283518056986        3.45405968905340
Cl          -0.17038150545452       -2.28045595627868       -1.90661990043448
Cl           0.15911887929592       -3.10528799693598        1.05798538823961
O           -1.07908294581898       -0.71471257076324        0.85367245490599
O            0.04275563495693        0.21131781780258       -1.16893446611429
C           -1.98207531722945        1.36128499522566        0.18834838553591
C           -0.67282526314500        1.94059646761257        0.22098736714002
C            1.51223432841603        1.96299810111619       -0.76599190827342
C           -3.29722370561233       -0.67242143969119        0.15482767074143
C           -4.46426604358203        0.00358526247742       -0.12550888784054
C           -3.15344374308037        2.08262010010914       -0.09886780304687
C           -4.34774354256756        1.41167346391396       -0.22613380810718
C           -0.31067843813250        3.07551958799806        0.97101953565629
C            0.92442674374237        3.64417773558287        0.77937690345150
C            1.86426326312302        3.15058635107473       -0.15314013492034
H           -5.21722855779124        1.99268669940547       -0.47555890903135
H            1.18020765594091        4.49685277577641        1.38320749256844
C            3.15680894417782        3.90139852210115       -0.44691765426757
Cl           2.48435174861246        1.10558237227960       -1.87073448882451
N           -2.12984889060932       -0.00413602765831        0.36677395697052
N            0.31124941247579        1.38012464345572       -0.56528087481339
Cl          -3.13378278958165       -2.36915621659935        0.29878733280675
C           -5.80194038386061       -0.69243561366391       -0.34442151307702
C           -5.70752252513308       -1.63303669511904       -1.55365458693512
C           -6.19474141882529       -1.47027830011893        0.91959442588069
C           -6.92864837579528        0.30881879663337       -0.62953040093030
H           -4.99709407333288       -2.43318693143484       -1.38474822318225
H           -6.68108046844455       -2.07613290855864       -1.74805995542877
H           -5.39847932098780       -1.07787907425073       -2.43639170738149
H           -7.16888585732447       -1.93093828282294        0.77632063287595
H           -5.47946246616026       -2.25115628195011        1.14753835991430
H           -6.25455525972975       -0.79506977517368        1.77040031061232
H           -7.85932233927927       -0.23904428124952       -0.75637258573593
H           -7.06303280394229        1.00243463933375        0.19697921192304
H           -6.74547574097991        0.86440854029975       -1.54588226288095
C            4.38115746834394        3.04177110692999       -0.10592119995766
C            3.17939033643757        4.30333330696129       -1.92960584372977
C            3.26284574850602        5.18932394984506        0.37902010288666
H            4.31773636694624        2.69732006993122        0.92370123157885
H            4.45941190062162        2.18235156420479       -0.76136240605086
H            5.28505691085300        3.63556335355972       -0.21976571470945
H            3.16719466528941        3.43542801684883       -2.57914092790103
H            2.31758122192053        4.92491315469930       -2.16379980238812
H            4.08131077043108        4.87295216006047       -2.13957814764738
H            3.31148363909359        4.97157948942037        1.44293706421587
H            4.17902591895536        5.70762450448715        0.10609347945626
H            2.43078512075788        5.86055546898453        0.18002614837406
C           -3.12494749360721        3.55224925179759       -0.39522719900153
H           -3.50454138587261        4.12232660304455        0.45071401784725
H           -2.12030279991608        3.89267003397179       -0.62426393891757
H           -3.76781361677033        3.76147627625093       -1.24731047931129
C           -1.20345713428811        3.60341469542422        2.05414038718611
H           -0.64535675377718        3.64479002562726        2.98783795190689
H           -1.53831094657540        4.61415549345043        1.82920398122275
H           -2.06794561373563        2.96401213839297        2.19956808554559
