75
 energy: -120.106419777366 gnorm: 0.000377433104 xtb: 6.5.1 (b24c23e)
Si           0.41700980354909       -0.83507597663529        0.37267563647271
O            1.81530013841335       -1.56500161579375       -0.07863472380426
C            2.22352070767621       -2.90222904298394       -0.05183571571965
C            3.57516250110129       -3.00303208527461       -0.71284553800596
H            1.48843322769958       -3.51304329592781       -0.59713864299549
C            4.54149499517641       -2.04068408392186       -0.45135052086606
C            3.87744787568259       -4.05720983760959       -1.56287650270864
C            5.79029657737597       -2.12673737663296       -1.03892626289056
H            4.29906762089448       -1.21981442855848        0.20620021876473
C            5.13004027211482       -4.14691532811001       -2.14477880739856
H            3.12753909543217       -4.80720870824193       -1.77152297576788
C            6.08780968320248       -3.18142902674380       -1.88554067165210
H            6.53415656262568       -1.37013557590064       -0.83481013443484
H            5.35700723291162       -4.97000366471064       -2.80683267555920
H            7.06334453084862       -3.24964282499748       -2.34468855019629
C            2.32351904536864       -3.42596351759023        1.39771387144555
C            1.01628241976293       -3.57129790323884        1.99637854667398
H            2.83465311171663       -4.39240895468810        1.38795817893230
H            2.91268833746229       -2.71368552087813        1.98119954314431
C           -0.08365286679492       -3.67356575334365        2.45723099458349
H           -1.03857412983758       -3.77184279494796        2.87963025596847
Cl           1.20672529576636       -0.15669221572037        2.20090938788423
Cl          -0.82194985234628       -2.21037928821492       -0.67266548305956
O            0.52902346581431        0.39977768206008       -0.80567662731836
O           -1.08513378806243       -0.05497620480739        1.10133054726998
C           -0.94014982129282        2.18587023602488       -0.38373528677038
C           -2.05046119281883        1.28532706038072       -0.53921852971297
C           -3.20356037769815       -0.63378604764668        0.33596581775898
C            1.45727197563042        2.43590246625518       -0.16806234908851
C            1.36294681614140        3.78130403120982        0.11099873987212
C           -1.07352980944897        3.55765295176194       -0.12697147938801
C            0.05178423102079        4.31633382573560        0.10726477149491
C           -3.08440678911028        1.44415900015945       -1.47454925008733
C           -4.13818317054324        0.55944003261424       -1.47317863795271
C           -4.26294550116131       -0.49151294565302       -0.53769475970903
H           -0.09215029026045        5.35481578444254        0.34488681486022
H           -4.88715831202094        0.67868360188396       -2.23565514064256
C           -5.47382793329554       -1.41472773955578       -0.53854064889226
Cl          -3.09880231872967       -1.78828540782592        1.58070926729766
N            0.35151386097850        1.69276497548337       -0.43933173536968
N           -2.13578734540702        0.19558381643284        0.30165426701976
Cl           2.90028110159537        1.53460754825974       -0.26238905093930
C            2.56958970715168        4.65157734276862        0.43819438914984
C            3.26894635506202        4.10752301570890        1.69169760263993
C            3.53526191637256        4.68006994293406       -0.75497093475854
C            2.16586002121631        6.10192759753047        0.73169690503225
H            3.66859493834872        3.11387252221972        1.52973814883144
H            4.08942356408030        4.76561972992074        1.96708131598143
H            2.56744861516930        4.06253767759356        2.52135055026767
H            4.37082486957628        5.33850267322474       -0.53104279480355
H            3.92751225151435        3.69455862624675       -0.97551402575724
H            3.02667709286329        5.05795138759566       -1.63932815722243
H            3.06202631422370        6.67690600620878        0.95242347359733
H            1.68060282457783        6.56178923636257       -0.12590202871128
H            1.51176888636167        6.16426161926835        1.59769896228364
C           -5.02024102026297       -2.85924072050405       -0.79238477521144
C           -6.21740841412477       -1.30354498800815        0.80039069990641
C           -6.46966993673480       -1.04592111228675       -1.64526188843659
H           -4.43464288736962       -2.91168690578703       -1.70706410411580
H           -4.41263584195764       -3.24047971962800        0.01939487467377
H           -5.89014264385722       -3.50297339463994       -0.89816256565851
H           -5.59527815910535       -1.61294074468137        1.63212462805345
H           -6.53602052822193       -0.27670015449970        0.96811538827303
H           -7.09986893687190       -1.93825404952446        0.77999717314451
H           -6.02309531405130       -1.15226464839064       -2.63065130341201
H           -7.31913752776491       -1.72279248622367       -1.59251805269864
H           -6.84548631066234       -0.03282406031728       -1.52230698000212
C           -2.41879335022134        4.20263535918266        0.02057327046160
H           -2.64809619433793        4.81070047698962       -0.85283652599645
H           -3.20260431578664        3.46304358654843        0.14842336590367
H           -2.41277490933854        4.85976375275808        0.88732463310443
C           -3.00506903850259        2.48387397945170       -2.55167956750329
H           -3.17995895180425        2.01319606324939       -3.51724101963417
H           -3.77124744616091        3.24445492022433       -2.41284672749282
H           -2.03034461651555        2.96079462195229       -2.56935808840582
