75
 energy: -120.111841588418 gnorm: 0.000285529750 xtb: 6.5.1 (b24c23e)
Si           0.17961506975346       -1.18607624521413        0.83043346346549
O           -0.75981687128283       -1.93946157932928       -0.24366030759401
C           -1.70896946079916       -2.96836257872074       -0.11742642109096
C           -2.99760357101820       -2.52486654674341       -0.76189124085943
H           -1.87250939893665       -3.18829865570126        0.94492610345530
C           -2.96361927249333       -1.71374618600943       -1.88891628871101
C           -4.22300912863788       -2.92291565341122       -0.24526353426128
C           -4.14005667403117       -1.30700996688702       -2.49152272392829
H           -2.00665614514838       -1.39444319667523       -2.27328841986518
C           -5.39931642228702       -2.51609649387474       -0.85053195522514
H           -4.25238333516159       -3.54566104069360        0.63738381548230
C           -5.36037672357796       -1.70831514249760       -1.97452832130172
H           -4.10560973963406       -0.67601664238066       -3.36794258014734
H           -6.34924643407623       -2.82630532090405       -0.44041623074796
H           -6.27912831393659       -1.38799853832605       -2.44348708761641
C           -1.16250223619467       -4.23057811886943       -0.81298643237127
C            0.05964628473474       -4.66186742508690       -0.16908786273534
H           -1.91543159264062       -5.02109562033587       -0.76259658885729
H           -0.96018291250458       -3.99356540811502       -1.86092938157668
C            1.07537574936530       -4.96208803949950        0.38698021283093
H            1.96351711959123       -5.23369793270062        0.87408214218548
Cl          -0.66412772604656       -2.00646218309977        2.64152302782983
Cl           2.10375226108295       -1.67555823142616        1.43020121871057
O            0.81738211284993       -0.34902264152071       -0.69735014906936
O           -0.27771733749083        0.35766158177715        1.42882895814802
C            1.57243957039827        1.76134640878702       -0.05747744433861
C            0.20315777038149        2.17873545678914        0.00798278011885
C           -2.07322125878510        1.53111731174979        0.52175415993341
C            3.08928137611898        0.06991376293302       -0.83441985874986
C            4.20547948621151        0.83852071895081       -0.56174214531147
C            2.67995543466627        2.54344617483805        0.31520772789736
C            3.94849735488240        2.06891343733317        0.08029192798071
C           -0.29882803468908        3.34597966494815       -0.58966546630570
C           -1.65582716553536        3.57668889880498       -0.58867694931713
C           -2.60069674706761        2.66325529472316       -0.05707501548729
H            4.77378477199239        2.67109233909430        0.41676053763848
H           -2.00645320421308        4.46780640057155       -1.07714691295829
C           -4.09705197371532        2.93734372480108       -0.14769586488396
Cl          -2.97444388887819        0.24484771661297        1.20251734577913
N            1.84122799229459        0.49819275768536       -0.54055459051295
N           -0.72730217394743        1.35085469972661        0.61436780619775
Cl           3.09665077607747       -1.45312821639615       -1.59984002259269
C            5.62575769186340        0.39002628721363       -0.87679583860793
C            5.93643613372621       -0.90782175637298       -0.11867131393726
C            5.78588338725044        0.18879705896410       -2.39057982680956
C            6.66174238456445        1.43503230654519       -0.44398828498835
H            5.31382334080789       -1.72826484158254       -0.45401964703743
H            6.97701542547328       -1.18212059088045       -0.27402688620454
H            5.76793749792079       -0.76777807757610        0.94626085347146
H            6.81282713520902       -0.08934714012211       -2.61383521301234
H            5.13284511967793       -0.59233718078505       -2.76120137447820
H            5.55734739930101        1.11280832099264       -2.91769159807463
H            7.65311379319011        1.07862091232032       -0.71337064098891
H            6.50265300642781        2.38573259565944       -0.94759025627101
H            6.64701778455968        1.58568312623396        0.63240716678838
C           -4.78272697449753        1.84271091817838       -0.97614173557199
C           -4.69540042683368        3.00342176014448        1.26469840203875
C           -4.39323049746522        4.27930367602207       -0.82956350622317
H           -4.34137230571298        1.79429874268310       -1.96878035834724
H           -4.69133539906248        0.86706610986561       -0.51387282804943
H           -5.84041582245986        2.07191008243888       -1.07994749942169
H           -4.60288491425883        2.05666452427276        1.78313851443867
H           -4.19107769503492        3.76992213386125        1.84905117342678
H           -5.75086286266185        3.25650326596810        1.20278996798195
H           -4.03684554309080        4.29122333896256       -1.85659646950657
H           -5.46987993458566        4.43019194256298       -0.85201685958942
H           -3.95401025881172        5.10931646705128       -0.28169453919407
C            0.58899986441963        4.29423074257132       -1.33804833796914
H            0.78793946776421        5.18388575007298       -0.74343546266414
H            1.53440251608174        3.82939942450042       -1.59883652995189
H            0.09131227643648        4.61349341582499       -2.25092366271944
C            2.50521246592504        3.82150778756097        1.07920891818425
H            3.11660199151308        3.78340794809414        1.97895575696506
H            2.83693968988652        4.67654736560056        0.49321588981171
H            1.47021387480634        3.96766183753317        1.37067059522873
