75
 energy: -120.110732294269 gnorm: 0.000625482185 xtb: 6.5.1 (b24c23e)
Si           0.64438293980118       -0.81340725368964        0.56588732913566
O            0.79611018368252       -1.91654543718319       -0.60850289273094
C            1.38613478681436       -3.19559701190408       -0.52379359014523
C            2.84749226163996       -3.08150839339967       -0.17547457979321
H            0.87072689259019       -3.77396164424932        0.25342943819074
C            3.62468424973928       -2.11080517874576       -0.79303252500010
C            3.42316441974821       -3.91643398081030        0.77048303814710
C            4.95974836605827       -1.96988461288164       -0.46278838382252
H            3.16791251086284       -1.45307081709905       -1.51755726576657
C            4.76156165659332       -3.78012567682276        1.09455461090604
H            2.81648750785512       -4.66052390635339        1.26503532799262
C            5.53089893386044       -2.80639243877555        0.48097976194714
H            5.55376336868945       -1.20343639994210       -0.93907905053598
H            5.20147852796131       -4.42840162756822        1.83805711972023
H            6.57262939091779       -2.69404783019970        0.74389680970448
C            1.20903532454577       -3.88214281052426       -1.88807115703717
C           -0.18510656471197       -4.13328810985758       -2.18010167143107
H            1.75833293576462       -4.82740066687547       -1.87795721845071
H            1.62935147716243       -3.23373737664143       -2.66043061714872
C           -1.34250595567601       -4.33414284605221       -2.40738847462410
H           -2.35191756441479       -4.51976734752879       -2.62263503500366
Cl           2.16266745164803        0.34357574879397        1.40158096924743
Cl           0.66477772539468       -2.16358687500120        2.25727991980414
O            0.46113842571383        0.36320381493680       -0.84657430098156
O           -0.90830016795681       -0.34310044871832        1.11025476466390
C           -0.80419171079026        2.16036709703966       -0.05631230971028
C           -1.97051589030539        1.33695521752703       -0.16489328282182
C           -2.88481222500670       -0.89730526283150        0.01997462003281
C            1.49811844830479        2.42583574317379       -0.67693740668659
C            1.54813615176900        3.73347256912025       -0.23436624747357
C           -0.77423784895291        3.45513787278896        0.49278451078136
C            0.38159277216205        4.19416041017994        0.41426337637423
C           -3.16897695061577        1.74142610595517       -0.77633129354673
C           -4.18428859979504        0.82780373190762       -0.94330135232475
C           -4.07358885915223       -0.53577097942791       -0.57402604570148
H            0.38582301046928        5.16179666488396        0.88381092756378
H           -5.07727090731197        1.16531500997877       -1.43775321168381
C           -5.21026046532572       -1.51570113112691       -0.83820949380903
Cl          -2.45584622755834       -2.47161673486399        0.53089159123689
N            0.38846636762375        1.66549476863425       -0.54083847482027
N           -1.91775710312162        0.02589750914249        0.27459591175588
Cl           2.75786233184889        1.61101279568391       -1.47994769690868
C            2.77893047051750        4.61824857688096       -0.37689123630751
C            3.96382445912110        3.98018511336175        0.36171725233473
C            3.10710395539654        4.81963755645169       -1.86343102784331
C            2.55262048267579        6.00784732584322        0.23178583300344
H            4.27866923174147        3.05419046899768       -0.10397530582343
H            4.80742454494416        4.66617363811054        0.36083587733441
H            3.69062724922418        3.76524389023009        1.39189589150022
H            3.96936453527149        5.47469250950413       -1.95982211424602
H            3.33636401593511        3.88115402897711       -2.35443782236803
H            2.26479526144681        5.28231627577571       -2.37374682720323
H            3.44551192417656        6.60865984548756        0.07638686041120
H            1.72066373891071        6.52102626451628       -0.24478709213783
H            2.37821718969989        5.94695360185116        1.30292197674366
C           -4.73050465921950       -2.64026528852769       -1.76513926634948
C           -5.70738512848365       -2.09091055851811        0.49568165720865
C           -6.40636854619358       -0.83860144749684       -1.51916573164673
H           -4.32191117089210       -2.22053987744788       -2.68196737216536
H           -3.96787306366070       -3.24184397279597       -1.28602454859387
H           -5.56827632135962       -3.28474436813648       -2.02140371973306
H           -4.92724875828367       -2.64242270522816        1.00711617705776
H           -6.04696884136894       -1.28751155108506        1.14569655491306
H           -6.54189799676679       -2.76419727613363        0.31603399000376
H           -6.13595101678654       -0.44096613122873       -2.49434198073833
H           -7.18895229099203       -1.57879840313380       -1.66892468320274
H           -6.81831252822500       -0.04341616174826       -0.90272187436983
C           -3.33391018617850        3.11086176192857       -1.36353125808657
H           -3.94898516961685        3.73435390198175       -0.71728878274099
H           -2.37508597775780        3.59775580657648       -1.50980544501970
H           -3.83865851170358        3.03474656841249       -2.32400540853829
C           -1.93384595750538        3.99089333176592        1.27791127574290
H           -1.57883267206844        4.32260374161824        2.25200644460793
H           -2.37993937824837        4.85039280804832        0.78121484496450
H           -2.69337226232043        3.23054646452157        1.42799341212221
