75
 energy: -120.111154426053 gnorm: 0.000877481745 xtb: 6.5.1 (b24c23e)
Si           0.58511668838243       -0.64388940851454        1.30557738910045
O            1.00439076592716       -1.99199312732960        0.52065413645130
C            1.60358330726683       -2.24744553205294       -0.72721987563118
C            2.84338533680834       -3.08595385700903       -0.53635449905774
H            1.86817499858573       -1.30272741077192       -1.21052058026499
C            2.99464540412326       -3.88637675007178        0.58673252161494
C            3.83961017436465       -3.07159614661328       -1.50466347114754
C            4.13072617477404       -4.66178573742082        0.73982324615513
H            2.22580821208097       -3.88121905448533        1.34380698347870
C            4.97130033552218       -3.85179056061627       -1.35253736199682
H            3.72853284222065       -2.44187295341822       -2.37690356365869
C            5.11881383580030       -4.64899272523474       -0.22945428123681
H            4.24372133449859       -5.27685850920633        1.62024959488805
H            5.74258603051143       -3.83323628441940       -2.10887073655506
H            6.00522500655423       -5.25416448243268       -0.10922130031000
C            0.58520327476967       -2.99094817196504       -1.61709707339713
C           -0.42982097235403       -2.08414609378056       -2.10288160618603
H            1.10932131524517       -3.44074278265255       -2.46435314964838
H            0.12562874563490       -3.78428483300478       -1.02244468082002
C           -1.23658782668253       -1.28898784277231       -2.48868092740350
H           -1.94719447693058       -0.60385921553917       -2.84260725846617
Cl           1.89154096032697        0.72860696561255        2.15973993099678
Cl           0.31723622317731       -1.73789948298438        3.09218034485711
O            0.63964895401216        0.30626511725077       -0.33417384609201
O           -1.03366377155248       -0.10813008353485        1.46768226445916
C           -0.71552084493851        2.18542527182583       -0.07515420576225
C           -1.86308988525278        1.33985647588479       -0.21250447617042
C           -2.83544722456954       -0.83981694488237        0.19934330816860
C            1.65786540193033        2.37789135876578       -0.37031518192654
C            1.65371363769418        3.74385890204330       -0.16404298503313
C           -0.75475237012605        3.55651562964033        0.24077807879702
C            0.40648755304826        4.29026315869945        0.20711178404201
C           -2.95745723290160        1.62965205805213       -1.04532718995845
C           -3.96098719313801        0.69951095000190       -1.19604103854386
C           -3.92670053747356       -0.58654084806352       -0.60020841072337
H            0.34843801558621        5.32502322357222        0.49488608178243
H           -4.77103393451104        0.94885093819528       -1.85801803836240
C           -5.02368645552796       -1.60856601681903       -0.87150384198778
Cl          -2.50326353716021       -2.31314453647385        0.99860673572488
N            0.53285748289953        1.63567344006417       -0.27660418633371
N           -1.89990888309669        0.11934550712212        0.44202527586941
Cl           3.02493285782170        1.44901013987467       -0.79895468225203
C            2.90094819692270        4.60995560271621       -0.27024953872392
C            3.94884450394134        4.13829437517755        0.74771347025623
C            3.45982192154319        4.54453531448757       -1.69912444862236
C            2.59673367405201        6.08228574637556        0.03327362214582
H            4.31870980413066        3.14622803322029        0.51833121447990
H            4.79296058076477        4.82362937133718        0.74773624923392
H            3.51759777536186        4.11663074222857        1.74558640354440
H            4.33009996260161        5.19106378854371       -1.77945957327936
H            3.75856275938811        3.53807691456731       -1.96821033243322
H            2.71058870305461        4.88611982641985       -2.41048865341620
H            3.50941058900346        6.66123133193718       -0.08658935284310
H            1.85535971511093        6.48559895712922       -0.65268047344560
H            2.25560449534965        6.21290101443019        1.05708614530149
C           -4.43238801519530       -2.84462144020042       -1.56312672152927
C           -5.69962792752566       -2.00117027271780        0.44985861338169
C           -6.11567478604285       -1.04628641796954       -1.79093896882295
H           -3.91488251850198       -2.55771057436260       -2.47506568436577
H           -3.72868170199646       -3.36168860007892       -0.92246907192705
H           -5.23154018649027       -3.53455287297020       -1.82157670843676
H           -5.00239523880717       -2.47602183029514        1.12977595380114
H           -6.11268936412873       -1.11987488415315        0.93578240368531
H           -6.51102334263292       -2.69720641748283        0.25216401296785
H           -5.72119314920149       -0.79721127327628       -2.77306117445430
H           -6.88305420505121       -1.80444557112169       -1.92737567380258
H           -6.59039930020732       -0.17023655520191       -1.35577418154170
C           -3.00860694260645        2.87559144052323       -1.87889192010547
H           -3.69508361045767        3.60051827983970       -1.44569506178093
H           -2.02854955275588        3.33319154710466       -1.96968680400888
H           -3.37539267184551        2.63306185282260       -2.87412641084774
C           -2.01039704539692        4.20193845217549        0.74563703693973
H           -1.79904634956980        4.68926211366716        1.69588155346722
H           -2.36256962076627        4.96700744236919        0.05634433074201
H           -2.79661487539586        3.47054181822099        0.90155151695783
