75
 energy: -120.029891922813 gnorm: 0.000380844868 xtb: 6.5.1 (b24c23e)
Si           0.01962973654469       -1.15826439217852        0.93199923352000
O            1.40529127335474       -2.07745899887673        0.38634877838312
C            1.81632084521281       -2.29386276951146       -0.80133269601880
C            3.14806191096895       -2.67183014733843       -1.08671097847867
H            1.11635974796732       -2.16800001595396       -1.62529620270969
C            4.09344446841576       -2.83430081809985       -0.05198771521747
C            3.55919987315027       -2.88802646726249       -2.41775561374320
C            5.38848794615891       -3.19159204656032       -0.34417934246136
H            3.76927980957002       -2.66516021321845        0.96358984823823
C            4.85896940826213       -3.24515868507438       -2.69323980072752
H            2.83915046647603       -2.76868851981187       -3.21376291475812
C            5.78004240007298       -3.39839945476675       -1.66268808495849
H            6.10701358422409       -3.31396696507059        0.45329477383380
H            5.16809105963342       -3.40877202898065       -3.71552822523751
H            6.79830177008161       -3.67894517913331       -1.88667736536200
C            3.59828539419537       -0.58459592609665        2.61142455718903
C            2.35224370046919       -0.30693019815921        2.37882160300935
H            4.40489314486544       -0.13501276112127        2.05296342705297
H            3.88099531669883       -1.27235118595305        3.39219962441732
C            1.11294465583089       -0.07591520697935        2.10113306759307
H            0.59477258344537        0.72356273448260        2.61275187097406
Cl          -1.29488787531410       -2.09884558047185       -0.56865021579021
Cl          -0.49892254372446       -2.55819719986060        2.43503687278538
O           -1.35662346791794        0.11299368036409        1.38769066883992
O            0.33886972835219        0.08314866921296       -0.61401475390177
C           -1.99910805373435        1.36574311798473       -0.41152645518989
C           -0.73680447819561        2.08506673593252       -0.24209943253770
C            1.64587680349638        1.94029023740043       -0.25328974150291
C           -3.42376679062194       -0.32704421754160        0.47109550127838
C           -4.36408471398399       -0.14306473995580       -0.53805433003957
C           -2.91593146398394        1.61681443542874       -1.42491645476799
C           -4.06404168013205        0.84329326092920       -1.48270512812003
C           -0.64834992340390        3.44013033718651        0.05133941662982
C            0.60334851513017        4.01050546729499        0.21195546360731
C            1.79444208519660        3.28246337950266        0.05193734606326
H           -4.73644842715980        1.01748588435115       -2.30416837813301
H            0.64516710671612        5.05181056588933        0.47569833103915
C            3.15360770782944        3.94997846924407        0.21638734006524
Cl           2.90982316536193        0.83009969447246       -0.57680943653965
N           -2.27667872426385        0.38671197295451        0.49070429875984
N            0.42092336275823        1.36503041479238       -0.36432431809672
Cl          -3.56739408101299       -1.37979461513030        1.79973027965880
C           -5.62674401671693       -0.98624313415405       -0.64568435698966
C           -5.23334905788366       -2.46630015519075       -0.75351910301721
C           -6.52600288871365       -0.74444510393425        0.57444730995600
C           -6.44224879746724       -0.63465164066208       -1.89630685701660
H           -4.79899181163626       -2.83560322793150        0.16708842090514
H           -6.11312061207996       -3.06362245413871       -0.97925818062493
H           -4.50375318491791       -2.60210625205937       -1.54786776559494
H           -7.43119638300179       -1.33865939318997        0.48020328722027
H           -6.02892129467817       -1.02168446523897        1.49637759962137
H           -6.80716627613620        0.30513131923197        0.63215525863043
H           -7.32454013421805       -1.26925322877596       -1.92821028658514
H           -6.78067637809945        0.39886771803366       -1.87707639247368
H           -5.87082137409094       -0.81605932312408       -2.80298813157478
C            3.94086923460492        3.24785021263529        1.33105290702233
C            3.92144287888554        3.89246688168411       -1.11175214355884
C            3.02334135582075        5.42704733532992        0.60826579604847
H            3.36480375816160        3.24317949771546        2.25345869698604
H            4.17507940732311        2.22331831096657        1.07030649880285
H            4.87405238915320        3.77672845194627        1.50832445708530
H            4.10699278897265        2.87068696151565       -1.42164358064563
H            3.35591227632967        4.39541739818140       -1.89333009385939
H            4.87827163899698        4.39630485926607       -1.00112431435177
H            2.50791957714678        5.54091101357892        1.55867013120004
H            4.01937001323069        5.84886108621927        0.71930150096653
H            2.50644038863355        5.99965510406751       -0.15812945186204
C           -2.65914632193949        2.64515316253134       -2.48285956774775
H           -2.89937770277558        2.23350079164055       -3.46040738397966
H           -3.29374699304427        3.51622044157293       -2.32471712167632
H           -1.62121550067987        2.96407963237247       -2.48164416259189
C           -1.87165773348795        4.28003445156258        0.25506091452534
H           -1.74504924333096        4.90540267200959        1.13590863626760
H           -2.02283795833115        4.93862338305171       -0.59900633159073
H           -2.75790639103008        3.66633896898323        0.38415109188408
