75
 energy: -120.109024346593 gnorm: 0.000623299406 xtb: 6.5.1 (b24c23e)
Si           0.12440782162134       -1.39469286822258       -0.09511882928933
O            1.54400103487567       -0.75435095077406        0.35750682437183
C            2.69257777638134       -0.96826255139380        1.14277593126710
C            3.66519710784208       -1.91467600913179        0.48057108267539
H            3.15633640800644        0.03054283479311        1.18955652632602
C            3.29547186617365       -3.20758420563965        0.13380691500208
C            4.95743255493499       -1.48403854297553        0.20452008368440
C            4.20197439968055       -4.04855385610520       -0.48756609020246
H            2.29798022240161       -3.55821697558777        0.34293216436010
C            5.86498509232860       -2.32916342828502       -0.40857326733073
H            5.25723140984517       -0.48030022130730        0.47265087654627
C            5.48748047225147       -3.61367461637038       -0.75996452862393
H            3.89882107737765       -5.04881684575679       -0.75781720380831
H            6.86636656721668       -1.98092747685764       -0.61665950916859
H            6.19320235249491       -4.27213524007423       -1.24483867542334
C            2.36523237886488       -1.39761609346205        2.58339012256856
C            1.46574661044238       -0.43811114216069        3.18440641938331
H            3.29950253865206       -1.44910915307511        3.14847794022648
H            1.89310705983732       -2.38084974397713        2.57899172052347
C            0.71207784413473        0.39320242480129        3.60029016562323
H            0.04085441786259        1.08526018705441        4.01247988909665
Cl          -0.10754786176465       -2.45899746753536       -1.83225536973592
Cl          -0.00393555352877       -3.10538242639185        1.18904349831408
O           -1.20284622523201       -0.79267243560038        0.81141746129440
O           -0.07226000024487        0.10002496715459       -1.21567612855671
C           -1.99448561541166        1.34856970101735        0.18063423654035
C           -0.65645069549865        1.85880512913153        0.19039797594598
C            1.50592541370569        1.75211487302174       -0.84263617295364
C           -3.39356279267304       -0.62378157306827        0.05786862001283
C           -4.52938234332953        0.10989337563227       -0.19918294908144
C           -3.13519624976801        2.13010879339996       -0.06603391056953
C           -4.35736691540958        1.51642525982123       -0.21930547788810
C           -0.20092129694187        2.93723142379300        0.96990113481333
C            1.07402388102511        3.41232412860004        0.78001869208881
C            1.95875574771242        2.88098765578369       -0.18312384173631
H           -5.20309365168268        2.14462757511840       -0.43293731345642
H            1.40523381208656        4.21550751548510        1.41432513318473
C            3.31725331060315        3.51902031178616       -0.44458707528143
Cl           2.39694933593802        0.85148675469121       -1.98951839435465
N           -2.20161696372027       -0.01550370963555        0.31262625181841
N            0.26664348696722        1.25797111223854       -0.63849993285714
Cl          -3.30131638939689       -2.33187072130376        0.11694354742787
C           -5.88830072615187       -0.52013615292176       -0.47972722933821
C           -5.80486304959185       -1.39681275949790       -1.73718824842801
C           -6.33891699578965       -1.34874579654844        0.73162516818623
C           -6.96925159945066        0.53864908282481       -0.73241874860711
H           -5.12986800794283       -2.23302250840718       -1.60004415050600
H           -6.79039603484098       -1.79016727594483       -1.97400837623866
H           -5.45670984295793       -0.80700460409603       -2.58227174149565
H           -7.32707612900227       -1.76137243124733        0.54407593558164
H           -5.66071084204257       -2.16959701170423        0.93109543400102
H           -6.39084290014614       -0.71893294178991        1.61711882647540
H           -7.91624512935480        0.03572971878672       -0.91333418047569
H           -7.09911620276138        1.18833015724779        0.12970272597125
H           -6.74127512531586        1.13853455170425       -1.60998468744549
C            4.44507469256566        2.53658260342852       -0.10168044566523
C            3.40444450946008        3.94721044809366       -1.91674488467880
C            3.52997618573127        4.77608953530823        0.40868060503212
H            4.36812469982486        2.23155813586209        0.94040632993864
H            4.40972896880937        1.65454930847867       -0.73090432873304
H            5.40808142565878        3.02057092767992       -0.24695569959788
H            3.33042344488527        3.09709283184697       -2.58468571088411
H            2.60304910646744        4.64467883765072       -2.15101199165804
H            4.35508434958229        4.44280932600246       -2.09737274462906
H            3.54576584685030        4.53984892074305        1.46982938839377
H            4.49232377442274        5.21404932642061        0.15446363183379
H            2.76337471391858        5.52209709261519        0.21374776413773
C           -3.04600442865117        3.60916873998327       -0.29458533910849
H           -3.70737291643458        3.89015354901541       -1.11097889482292
H           -3.36715338304435        4.15450939969694        0.59099877078182
H           -2.03420742218593        3.91142415877527       -0.54528777367227
C           -1.03415729495725        3.49936426526130        2.08232314030909
H           -0.43136397707025        3.55094921514665        2.98719367836191
H           -1.36233586821997        4.51178493025150        1.85384384541150
H           -1.90449628894857        2.87887265067466        2.27261338877782
