75
 energy: -120.111106991937 gnorm: 0.000683751994 xtb: 6.5.1 (b24c23e)
Si           0.13816019674788       -1.05934920243764        1.38510170783617
O           -0.84502481876729       -2.14055022851302        0.70371679975325
C           -1.02730281942512       -2.61101100352160       -0.61442720945819
C           -2.45148800600183       -2.34842326660014       -1.03119551532363
H           -0.33941023902495       -2.09126452434870       -1.28556789162196
C           -3.48719624564434       -2.58419711900573       -0.13582557275261
C           -2.74477085743822       -1.87310953234784       -2.30164387194517
C           -4.79842934369650       -2.34989436598984       -0.50854662785370
H           -3.25286723004625       -2.93535390427795        0.85799390985410
C           -4.05778920074610       -1.64664879822617       -2.67610748711757
H           -1.94054187015381       -1.68061098353985       -2.99802626871954
C           -5.08664855911268       -1.88509544783903       -1.78094329767050
H           -5.59770406325803       -2.53108899935282        0.19518740702358
H           -4.27812763925529       -1.28000836286518       -3.66838410100186
H           -6.11047244290670       -1.70340885967572       -2.07273919645380
C           -0.72221003668561       -4.12057041976168       -0.63729732487047
C            0.66656971974728       -4.36155851029335       -0.30964149964477
H           -0.95048980701473       -4.51625717603273       -1.63071591334450
H           -1.35752318504456       -4.61669624687398        0.10068715728748
C            1.81751093142317       -4.50379036494139       -0.01605135581113
H            2.82263602866937       -4.64932583862278        0.24608227822610
Cl          -0.58795254961989       -1.54098648012548        3.29975215040565
Cl           2.12493265272062       -1.33587467736216        1.88589512080925
O            0.68155947583442       -0.46425604095320       -0.39014257763412
O           -0.34744047011236        0.56012500387044        1.64591465271879
C            1.42675741777045        1.72449694408786       -0.13625495576952
C            0.05521334941098        2.13357197572485       -0.07421774393183
C           -2.19294219610320        1.52352250312535        0.59546135741770
C            2.92930695077130       -0.05071245155995       -0.72043154105942
C            4.04555760350111        0.76061153366867       -0.62740013259931
C            2.53821903899162        2.56256704949041        0.06244368412974
C            3.80130742384693        2.06992405697841       -0.16450523402642
C           -0.48928233729419        3.18932711735096       -0.82207576185474
C           -1.85130458209649        3.38824236955008       -0.81934019546938
C           -2.76076150806815        2.53947667029704       -0.13801435820276
H            4.63209494554701        2.72295670129107        0.03633846721697
H           -2.23535341995221        4.19045975470370       -1.42286138154975
C           -4.26573438097828        2.75108514266376       -0.25008188246308
Cl          -3.04329945052042        0.33798647703556        1.48889442506894
N            1.69156181488393        0.40416418125861       -0.42887852807145
N           -0.83952359613654        1.38886480520819        0.68014349116298
Cl           2.92458623468519       -1.67832835856523       -1.23922857740405
C            5.45494801430296        0.27987078807452       -0.94300508423524
C            5.81974483029479       -0.89055986831873       -0.01910519425834
C            5.54548440967329       -0.14057552619830       -2.41705021442616
C            6.49583262701454        1.38379848585393       -0.71887029636870
H            5.21673545146330       -1.76657282813206       -0.22418436759512
H            6.86497427503090       -1.15558324307362       -0.15881960258990
H            5.66667772766990       -0.60884125553437        1.01980262925146
H            6.55847007946523       -0.46541154213561       -2.64119318210062
H            4.86819713816103       -0.95579927807152       -2.64335432721437
H            5.30346127002335        0.70139492235810       -3.06242443283212
H            7.47786120535935        0.99934158602127       -0.98411065140998
H            6.29880995919714        2.25050532610066       -1.34561219362134
H            6.53120794517459        1.68836151033659        0.32398773046720
C           -4.91749940259631        1.51928992563422       -0.89277747254477
C           -4.85868852169675        3.01455997442473        1.14124902444561
C           -4.61138172879425        3.96163794054035       -1.12687164779839
H           -4.46998784814364        1.32084246334845       -1.86420427755155
H           -4.80036642097687        0.63465702222356       -0.27831811316451
H           -5.98051650044874        1.69929592580319       -1.03290648486414
H           -4.71764389065924        2.16873015196501        1.80332856226540
H           -4.38843960893949        3.88745222022317        1.58879741349445
H           -5.92543086522382        3.20511807006681        1.05341040725624
H           -4.26283754727275        3.82605173233173       -2.14776114835927
H           -5.69259288030567        4.07323991194223       -1.15901116956059
H           -4.19611030640611        4.87984197019909       -0.71868047778637
C            0.35642424931066        4.03634455060989       -1.72494584767106
H            0.56921505072904        4.99756704281519       -1.26091756127384
H            1.29645406162966        3.54765301034370       -1.96105956330327
H           -0.18104565168534        4.22972176594486       -2.65046730322212
C            2.37953733253549        3.93507235586028        0.64406960955884
H            3.02561554920467        4.02665446953378        1.51543525330439
H            2.67969798695393        4.70088798383614       -0.06869002902659
H            1.35532008050075        4.11546331239502        0.95390240744277
