75
 energy: -120.113727873962 gnorm: 0.000267398717 xtb: 6.5.1 (b24c23e)
Si          -0.36663622902840       -1.61507162526058       -0.35453384211689
O            1.24165366614251       -1.46901631943001       -0.13110286310083
C            2.19901376832670       -2.36937222632223        0.36304672219323
C            2.99515297179055       -1.74944546917654        1.48419429838235
H            1.69054470330679       -3.26807190855309        0.73346395139474
C            2.93802392650772       -0.38933694866337        1.74794737676906
C            3.82837470461005       -2.55182224889381        2.25588024017041
C            3.70960101849529        0.16459190449204        2.75503660605208
H            2.27721158041528        0.23388896446828        1.16721838824822
C            4.60070812247609       -1.99808167663719        3.25962579812261
H            3.86236945681007       -3.61632214754988        2.07428979747132
C            4.54819215572355       -0.63613361073715        3.50909614687789
H            3.65353901430170        1.22662481346663        2.94892662475378
H            5.24395162788496       -2.63114471735964        3.85300673168690
H            5.15302985867387       -0.20458415168232        4.29304921891228
C            3.14774676666035       -2.77582149812333       -0.78637090639611
C            2.38992329501658       -3.30956361309320       -1.89748421945539
H            3.71076886697320       -1.89666433884347       -1.11194036437368
H            3.85145271774681       -3.52567789526638       -0.41874458125823
C            1.70763697002288       -3.71245837821038       -2.79381127970381
H            1.11464501036832       -4.07528605111781       -3.57902202940894
Cl          -1.36195966363435       -2.44223913991289       -1.94659110311621
Cl          -0.67092654990559       -3.30913902163276        0.93426746161247
O           -1.20156060541310       -0.66662497516202        0.81493958898583
O           -0.30544075406817       -0.12081804330803       -1.44573873031801
C           -1.57179765716023        1.58150148744799        0.19905817308120
C           -0.16958566485453        1.73916812632306       -0.05168555168973
C            1.68224233034892        1.07759895961936       -1.43244126876406
C           -3.40296231748589        0.03510829660905        0.53785484597540
C           -4.35266495749267        1.02602945912665        0.41919812265647
C           -2.51119942741409        2.61888256554936        0.08520590903745
C           -3.85152565000791        2.33454115524441        0.21166694982609
C            0.66274720778200        2.69145047571718        0.56346297476103
C            1.96436981672966        2.81952656450342        0.14114962418628
C            2.51299605386830        2.05450801293538       -0.91366744907420
H           -4.54383637693470        3.14713049279584        0.08491321239181
H            2.58760663276254        3.52616321117243        0.65976995265102
C            3.93633143015884        2.29106553600013       -1.40103637922972
Cl           2.08155701674123       -0.00846439871950       -2.69013114898011
N           -2.07318163421419        0.32369004748592        0.48874887308089
N            0.41838588768877        0.91024203284487       -0.98444749406003
Cl          -3.71870724438725       -1.62844945202086        0.78049804929462
C           -5.85170885837650        0.75926706545543        0.47920097210288
C           -6.25732258601601       -0.19740764978598       -0.65052489091143
C           -6.21801545902300        0.16988236825885        1.84863098903574
C           -6.66993727387011        2.04496371854706        0.30330538976120
H           -5.79019674416540       -1.16863906210726       -0.54237809962505
H           -7.33572088720604       -0.33514957363505       -0.64184335421687
H           -5.97015887911798        0.21805432627793       -1.61375277765644
H           -7.29336660466710        0.02144085216699        1.90617796385771
H           -5.73312799585153       -0.78432895120513        2.01586219543290
H           -5.92170320718385        0.85354759567217        2.64127142329308
H           -7.72706224925074        1.79766851540839        0.36420615013995
H           -6.45342274385136        2.76596060777551        1.08785584358225
H           -6.49267336221534        2.49901104937212       -0.66850650494742
C            4.77726572249126        1.01911071684990       -1.21999573165381
C            3.90806146833000        2.71288640085008       -2.87705904161922
C            4.62870914389385        3.41136607569893       -0.61497873364909
H            4.69832321327911        0.65591814607001       -0.19695856260997
H            4.45758159421487        0.23577149981862       -1.89735130482538
H            5.82170110793271        1.23853359659742       -1.42860027357559
H            3.46882482792986        1.94362455145827       -3.50173886992657
H            3.33063545651023        3.62745017160525       -2.99443129628121
H            4.92165641427217        2.89877622301067       -3.22341657435208
H            4.73564261640017        3.14954055094449        0.43483040108187
H            5.62623347920798        3.56046746686809       -1.02145952880002
H            4.09159708301303        4.35256681484740       -0.70467124415458
C            0.19628926897520        3.47581120306169        1.75291860719238
H           -0.77443780193118        3.13214300013548        2.09528502928687
H            0.91225138961571        3.35435844839133        2.56401612927688
H            0.13899198457957        4.53787645851879        1.52207070237727
C           -2.10585217779760        4.01137053403744       -0.29504716800176
H           -2.81296187638931        4.40941258339193       -1.01924238368485
H           -2.12094329765195        4.66645184206350        0.57412739697613
H           -1.11195461241973        4.03069160345375       -0.73058728043601
