75
 energy: -120.109836639915 gnorm: 0.000695797969 xtb: 6.5.1 (b24c23e)
Si           0.27360962099808       -1.47940065179136        1.18197990062046
O           -0.24461160833840       -2.68865757365789        0.23682085721561
C           -0.17917064421319       -2.85767753166718       -1.16655949970782
C           -1.22857829982898       -1.99241664909990       -1.81405162760332
H            0.81215416110784       -2.55866221942782       -1.51981654920770
C           -2.56357500042627       -2.15477264398306       -1.46684847917430
C           -0.87934733778875       -0.99335758605201       -2.71162401717597
C           -3.53549875387769       -1.34539376613529       -2.02513842282986
H           -2.83791134675060       -2.91383445020091       -0.74989917505491
C           -1.84893304469137       -0.16549996620521       -3.24966867403231
H            0.15765312481828       -0.86078289607109       -2.98266721350661
C           -3.17922473339140       -0.34365266170379       -2.91203392962370
H           -4.57205967199965       -1.50120401831801       -1.76772041642881
H           -1.56539293300046        0.61621073841377       -3.93986769936155
H           -3.93604034107148        0.29442251895893       -3.34537694613925
C           -0.39101645682221       -4.34994892943692       -1.46843979032200
C            0.77970468105546       -5.11251984986753       -1.09093147149686
H           -0.58674292040483       -4.47431844138393       -2.53726404036416
H           -1.25188100071500       -4.70865909791102       -0.90078763696761
C            1.77088257413728       -5.70153912366706       -0.77264566228952
H            2.62692006870372       -6.23620948197893       -0.48777456379563
Cl          -0.56809437483759       -2.42046412840851        2.86700785471628
Cl           2.16098811833740       -1.28908668142533        2.02927177397325
O            0.86514009407860       -0.58650260932817       -0.37309938429146
O           -0.61388299829432       -0.06485139408848        1.57411993050640
C            0.96075225068556        1.69238094718776        0.05365389794646
C           -0.47191671554710        1.72871373900273        0.01547853122433
C           -2.58960628456351        0.82203385196945        0.75729789303526
C            2.94675008523989        0.41839000519186       -0.39145895111182
C            3.78403050189843        1.49226720658217       -0.15786265365318
C            1.77479894128998        2.80221467787728        0.34847970243686
C            3.14078547330454        2.67651162722985        0.26262369848259
C           -1.19277401113630        2.67733943630517       -0.73258712793390
C           -2.56317046567655        2.71628905183733       -0.65130761555398
C           -3.31686223117125        1.81798409548639        0.14683827568129
H            3.73540034708584        3.52698641992048        0.54547583906640
H           -3.07756839802889        3.44245626069893       -1.25468051936908
C           -4.81693319903215        2.00876817329651        0.33929709157719
Cl          -3.24734747697105       -0.48663662406485        1.64078140188902
N            1.60731854710303        0.51452118894554       -0.24144410405239
N           -1.22564299616570        0.80280445556097        0.71951223736567
Cl           3.44183504768945       -1.12353536173062       -0.93361045050443
C            5.29828015693665        1.41621821840971       -0.29439234817075
C            5.84927188791281        0.34863883627364        0.66142490097493
C            5.67735261687483        1.09573829573578       -1.74763543755637
C            5.96966248357658        2.74641887959604        0.06937007852416
H            5.51276715210330       -0.64616123916288        0.39591913184991
H            6.93617931359770        0.35829564271319        0.63309771432503
H            5.52555483730821        0.55484371592977        1.67877396863986
H            6.75987629645726        1.08436355545720       -1.84719313952443
H            5.29742169062844        0.12935208975266       -2.05792302034363
H            5.27856692535382        1.85659933294146       -2.41556713297535
H            7.04478284395663        2.64263976177470       -0.05631688718819
H            5.63626861324442        3.55234586666080       -0.58040360265182
H            5.78298799089399        3.01309845606000        1.10654612745069
C           -5.61262968584228        0.81787448693269       -0.20483004519367
C           -5.09952774923353        2.19586325307254        1.83802930775338
C           -5.32506867383513        3.26513430849179       -0.37944354688416
H           -5.44772103422810        0.71975455775315       -1.27416031285909
H           -5.32504164335935       -0.10600582957371        0.28214016263582
H           -6.67379503879894        0.98169528928211       -0.03249952200695
H           -4.84659224231047        1.30769868660451        2.40488694878738
H           -4.52402629742206        3.03267889554092        2.22774967800004
H           -6.15570608440563        2.40599652820198        1.98746439918802
H           -5.21182877900061        3.18103797284159       -1.45745010248767
H           -6.38493517315607        3.38544038940728       -0.16819562212826
H           -4.81235445023360        4.15753024927844       -0.02923104892154
C           -0.50592986990629        3.59324956473098       -1.70177130559703
H           -0.53780459565649        4.62315934975957       -1.35180917771764
H            0.52903025854004        3.30712490677115       -1.85850628954932
H           -1.02716847847398        3.55549625612750       -2.65637611295315
C            1.19421875514836        4.07823928714137        0.87925425528937
H            1.71722501191764        4.35508876178944        1.79275530965791
H            1.32600268199637        4.89044538001040        0.16674521225527
H            0.13773188662382        3.97145623683675        1.10322319519370
