75
 energy: -120.113729639824 gnorm: 0.000547634329 xtb: 6.5.1 (b24c23e)
Si          -0.30091097118654       -1.54642273465537       -0.58550548357169
O            1.29873286967587       -1.39620829430864       -0.31108829408826
C            2.27192079818605       -2.33050865295203        0.07779574848890
C            3.02994825444050       -1.84552892692530        1.28883874503058
H            1.78219877410048       -3.28335001828444        0.31455299582091
C            2.89461112939082       -0.54664851231652        1.75506641858703
C            3.90368901111043       -2.70783831884952        1.94201103936908
C            3.63055766897417       -0.10835729163023        2.84232746941009
H            2.20058319396323        0.11876250764402        1.26825350105200
C            4.63994442909965       -2.26956940457875        3.02677935174946
H            3.99827603423271       -3.72985674037745        1.60475963472090
C            4.51098558958948       -0.96555619976557        3.47699119469687
H            3.51329676987908        0.90760849683802        3.19255728497107
H            5.31520437580213       -2.94855781121233        3.52635823374448
H            5.08837943199661       -0.62404462129754        4.32348893654058
C            3.24881025101044       -2.55456311096373       -1.09746477341170
C            2.52397135727384       -2.96490804079871       -2.28074433572157
H            3.97382124809896       -3.32187196441491       -0.81815318499515
H            3.78435299068876       -1.62258554055533       -1.29819220256837
C            1.86394029867060       -3.27032094672122       -3.23060584605964
H            1.29311603420108       -3.55054486089079       -4.06454063460804
Cl          -1.24557373796274       -2.14090638802216       -2.30614667702886
Cl          -0.58253267786983       -3.42267322628210        0.42319539207412
O           -1.17810153978499       -0.80643252840986        0.69650538882334
O           -0.26018437492379        0.10350614726825       -1.43515766884075
C           -1.58668867160627        1.50349021119910        0.43451607127227
C           -0.18513379726785        1.72516332110520        0.23415059967326
C            1.70017328848526        1.32221590885617       -1.19994304527527
C           -3.38934774092466       -0.11163384261288        0.48788634851372
C           -4.35792379348092        0.86742288188559        0.51734005167502
C           -2.54637129409819        2.52774823060318        0.47476351410114
C           -3.88181325099721        2.20140101780994        0.53412321322677
C            0.61878284551898        2.58363407113065        1.00571447081313
C            1.92354753757113        2.79990282804932        0.63173106700578
C            2.50410745428024        2.21821519739439       -0.51842811641052
H           -4.58957877041018        3.01053136702519        0.53107541119917
H            2.52426392182118        3.42746056144115        1.26572956662785
C            3.93196331611968        2.54788216014747       -0.93291618036923
Cl           2.13924349290824        0.45656692974348       -2.60635846668778
N           -2.06546939861647        0.20626862666393        0.51132257951057
N            0.43314173373579        1.06431137094479       -0.80700791429213
Cl          -3.67275058738695       -1.79802111262015        0.44590639965767
C           -5.85160075079108        0.56633456857309        0.50677582448578
C           -6.22056031325292       -0.19283285166011       -0.77524522705514
C           -6.22419256926429       -0.25312119678555        1.75032801818845
C           -6.69462564468907        1.84764315970569        0.53715274194333
H           -5.73772208706775       -1.16132156600710       -0.82187421153903
H           -7.29627303411332       -0.34608052938455       -0.81158241181799
H           -5.92418613269305        0.38272370719338       -1.64920520020642
H           -7.29649493822383       -0.43131892643479        1.76194911608776
H           -5.71969125538378       -1.21168688817117        1.76386506865632
H           -5.95591045778448        0.29307220456112        2.65206478716792
H           -7.74692606065834        1.57375564644558        0.54043656834692
H           -6.50185822437208        2.43020145982075        1.43475523959051
H           -6.51624149331028        2.46202955743713       -0.34185283852937
C            4.78793564917111        1.27309113222800       -0.95074130771320
C            3.92144604463405        3.20928810852338       -2.31840225069623
C            4.59626463915479        3.52751057292369        0.04243454893143
H            4.69015271394243        0.73930298265359       -0.00718107708751
H            4.49746622772193        0.61420581484705       -1.76069059958406
H            5.83351010257248        1.53690430056272       -1.09107336814492
H            3.49462205108964        2.55280769830854       -3.06811998997433
H            3.34055689652029        4.12877186240307       -2.29034586199230
H            4.93854791313747        3.45347262485748       -2.61468007437417
H            4.68485939541784        3.09496702139055        1.03603154925121
H            5.59999972116126        3.74938781594389       -0.31226377435589
H            4.05136275583140        4.46678016796333        0.09895906599587
C           -2.16645346216601        3.97082896582017        0.32949291616564
H           -2.20473672702833        4.47673799721595        1.29248967384371
H           -1.16858543776548        4.07921093356350       -0.08331086010249
H           -2.87402542125980        4.46691744797006       -0.33088144280336
C            0.12088649156912        3.15958810557490        2.29723838960661
H           -0.84656643831920        2.74752176104347        2.56526753084886
H            0.82897484251728        2.92319550682295        3.08969893358205
H            0.04448350938076        4.24362108779146        2.23807971885803
