75
 energy: -120.108876432083 gnorm: 0.000632382950 xtb: 6.5.1 (b24c23e)
Si           0.06791585138919       -1.22805123376721        0.37872459234494
O            1.03352530016336       -2.46799784768309       -0.07642376518411
C            2.34773937116081       -2.82056409805811        0.26357658429212
C            3.33308141108174       -2.28485911558330       -0.74477466898684
H            2.58624151064742       -2.41966885783433        1.25770613670105
C            2.93803369578743       -2.02104677600392       -2.04839420540249
C            4.65268922039561       -2.05708815336173       -0.37312087226072
C            3.84666370669737       -1.52247550073999       -2.96523458731188
H            1.90959674457047       -2.18954976610508       -2.32806002313835
C            5.56134796224339       -1.56467238517986       -1.29225828599830
H            4.96161080402083       -2.25482801464102        0.64409504282353
C            5.15924382828751       -1.29353236863052       -2.58987485476327
H            3.52809829159277       -1.31152165963321       -3.97584523461710
H            6.58393524561870       -1.38434154640938       -0.99342085589390
H            5.86801777561737       -0.90160663593544       -3.30480728291901
C            2.42680704908650       -4.36000600253149        0.31385500872250
C            1.60771382958207       -4.87017970606369        1.39173179435974
H            3.46719947437825       -4.66225376374828        0.45895862560774
H            2.06736150048122       -4.75645588703666       -0.63924069721061
C            0.91201198718968       -5.23606553096393        2.29360697452707
H            0.31139399324833       -5.58084964169515        3.08114953710270
Cl           0.95096518801869       -0.89009859171084        2.26320046419653
Cl          -1.38976534124477       -2.11833344048507       -0.86438381593673
O            0.60674807444922        0.03522602134569       -0.66027975670554
O           -1.21459829201112       -0.16458858058626        1.12411360168673
C           -0.56566099340334        2.05225716190474       -0.27790536385017
C           -1.82086725074345        1.38644064917008       -0.50023871033329
C           -3.38867075547279       -0.24534837437902        0.30957161449256
C            1.81936238505880        1.87362874305782        0.09028496482388
C            1.94649487770771        3.21109904305521        0.39073721396480
C           -0.46769910773508        3.42593809543036       -0.00833624412897
C            0.75517716365055        3.97245137042024        0.30952245632311
C           -2.75952313980905        1.76249549208531       -1.47341748923952
C           -3.98478165461833        1.13747629116724       -1.50665993780344
C           -4.36918449616395        0.14293147478949       -0.58166187950463
H            0.78202121854098        5.01881303985747        0.55395033191011
H           -4.66313039657425        1.41701528819774       -2.29307370894680
C           -5.75811812875299       -0.47900759300577       -0.61708839649724
Cl          -3.55817075218110       -1.44118986056320        1.50954425060653
N            0.61999823501048        1.33479003114034       -0.26369255427587
N           -2.16982534242509        0.33937553273415        0.32446592848521
Cl           3.09554952032047        0.73421555546615        0.07134518567852
C            3.26093166443453        3.85025454578415        0.82167735088109
C            3.75886951941556        3.17942810896890        2.10960675623022
C            4.30286347429089        3.72144215102070       -0.29844798641428
C            3.09797050284911        5.34614416831872        1.12041933075983
H            3.98624229942371        2.13145607290102        1.95598909514778
H            4.66099344169323        3.67739450049966        2.45626666287828
H            3.00180368345159        3.25519213584865        2.88658645082736
H            5.22061922048958        4.22232499903442       -0.00052539621787
H            4.53556000474626        2.68544339813976       -0.51415336635427
H            3.93411696176711        4.19072661771046       -1.20791568173256
H            4.06186751137612        5.75037967816725        1.42016885245671
H            2.76822107321198        5.89442884301363        0.24133121473876
H            2.40115213785578        5.51407697726068        1.93764670184752
C           -5.64177529221881       -1.98278399121180       -0.90278249461547
C           -6.47425852616789       -0.23082602419752        0.71825254039589
C           -6.62748444179504        0.13440913361972       -1.72167138972007
H           -5.03394092191726       -2.14864126910492       -1.78857301628248
H           -5.18587803550523       -2.51459717757167       -0.07654698874004
H           -6.63092660855033       -2.40067245171726       -1.07309072289166
H           -5.94097042252453       -0.67919196732669        1.54812922416550
H           -6.56644980269764        0.83777525917350        0.90143401482647
H           -7.47205688921933       -0.66078694827413        0.68106714157895
H           -6.21324530972220       -0.06410565414777       -2.70666560788586
H           -7.61595933931680       -0.31697232397494       -1.68151968718034
H           -6.74719234308499        1.20662648205340       -1.58516596564787
C           -2.40976638030973        2.74165502258617       -2.55373905233326
H           -3.02667074841006        3.63542179943870       -2.48271852383794
H           -1.36349545201601        3.02572636927892       -2.50798926529991
H           -2.60312688183548        2.28471607700044       -3.52261746760913
C           -1.68100484236121        4.30386787981473        0.06667398658776
H           -1.60447418720488        4.95335928143885        0.93559143561250
H           -1.74635153718227        4.93916221230906       -0.81445735882475
H           -2.59269209782888        3.72109323665604        0.14586109491181
