75
 energy: -112.025621083142 gnorm: 0.000583067676 xtb: 6.5.1 (b24c23e)
Si           0.08903514639452       -1.20358316550707       -0.23726971874290
O            1.56037084983016       -0.70507546361557        0.26543615204260
C            2.45788513854301       -1.31078453436527        1.16226691033169
C            3.17130208316629       -2.49115354914924        0.55299895743719
H            1.90565282523125       -1.64418389008244        2.04876439245351
C            3.36437483074968       -2.58376200468485       -0.81684571391005
C            3.66170171814317       -3.49601121291103        1.37681191276272
C            4.02743065007032       -3.67041069554678       -1.35892279854145
H            2.97110011953449       -1.81612391064530       -1.46663551323731
C            4.33158544688733       -4.57728938263356        0.83607727508495
H            3.50072537357397       -3.43566458717989        2.44358028380601
C            4.51540448490147       -4.66751630260535       -0.53374773814651
H            4.15739165396635       -3.73781775667780       -2.42894523686582
H            4.70169707176756       -5.35812497537712        1.48439625985284
H            5.02964472258786       -5.51811341258430       -0.95656872604309
C            3.47856779822587       -0.23528311504219        1.58479590974139
C            2.80420414126082        0.87157674261515        2.22688310149556
H            4.19969735926829       -0.68307542025937        2.27252282965592
H            4.01094336308598        0.12008583282699        0.69866946859438
C            2.19530408754755        1.76493675475732        2.74014104138518
H            1.67868753770262        2.55240601808049        3.20126079307570
Cl          -0.25591979448216       -2.10359537415070       -2.05828851164185
Cl           0.07914119807275       -3.08219717662028        0.85209863643867
O           -1.18800582817278       -0.74137800221721        0.78811455888184
O           -0.10107870570551        0.33065546202876       -1.16888979261273
C           -2.06888179568203        1.41233299935388        0.42200221336222
C           -0.80858859427877        2.03702730426066        0.24902013791926
C            1.33267683935624        2.13117625800143       -0.86679138819817
C           -3.44832691492051       -0.58244224671456        0.26796430485926
C           -4.60867697654800        0.16843074022834        0.22446597452817
C           -3.25270455706171        2.16148014912812        0.56175939292882
C           -4.47223887343586        1.56312913781695        0.47020106644012
C           -0.51398043779229        3.29043817893799        0.81693168513651
C            0.67944973958964        3.90399110825407        0.58505024062572
C            1.65426057836457        3.34509784092027       -0.27679173426897
H           -3.18057225785670        3.23172298014375        0.66342995013461
H           -5.34734617458305        2.18056664496466        0.55769721368688
H           -1.23337462042269        3.73384822938512        1.48557970759574
H            0.86634944806198        4.84300688699241        1.07369016805001
C            2.96413515842903        4.09488865251310       -0.51572868567060
C            2.12634195039179        1.38573966083237       -1.88725747838061
N           -2.24794256271736        0.04312711432669        0.42540191833562
N            0.16659966065224        1.51106715220247       -0.56307231169239
C           -3.32246108688951       -2.06769665588619        0.20249399411706
C           -5.99285779545725       -0.41049991220490       -0.06223189543226
C           -5.97930711772184       -1.19509656926017       -1.38367835702412
C           -6.47082569816826       -1.27737077142081        1.11340006539244
C           -7.04760689732340        0.69338897784482       -0.24267254430661
H           -5.30324677663152       -2.03994796277890       -1.37465084152951
H           -6.97901820198347       -1.56686762172461       -1.59789965739776
H           -5.67959502736414       -0.53554306428880       -2.19541395560109
H           -7.47082153343624       -1.65350443726275        0.90887976714509
H           -5.82425869694808       -2.12583604299856        1.30533961966697
H           -6.50916348174948       -0.67637301910831        2.01976581015530
H           -6.75951674331009        1.39177412874758       -1.02471140248926
H           -7.98909077356596        0.23413352064905       -0.53608509721025
H           -7.22604589798457        1.23739400768261        0.68158952917730
C            4.17421872691920        3.19341600075926       -0.22641408689647
C            3.00000430028246        4.65626185881667       -1.94651246885976
C            3.11208831994044        5.30007360217386        0.42669498550465
H            4.09750780783653        2.80195145152308        0.78556284116002
H            4.25791374043656        2.35808256695121       -0.90939850076161
H            5.08949101169873        3.77687668387877       -0.30250790781284
H            3.06777201014467        4.99105574851549        1.46800124247715
H            4.08322300631748        5.76053080875849        0.25835182707423
H            2.35677249013913        6.05874928299042        0.23699054706386
H            2.92527153170365        3.88578298045950       -2.70566483537137
H            2.17124636710615        5.34637951369818       -2.09130107894157
H            3.92940313117331        5.19885295042674       -2.10496945041769
H           -2.69852096288711       -2.41647877531032        1.02525949687707
H           -4.27249380716542       -2.57839304793221        0.24727735699558
H           -2.80611230672631       -2.34942228450152       -0.71653423493184
H            2.91718259287566        1.97476583066733       -2.32753518399298
H            2.54441004683062        0.49293175216886       -1.42550567699599
H            1.45256084021040        1.04491282796278       -2.67344101552220
