75
 energy: -112.021296287158 gnorm: 0.000812426138 xtb: 6.5.1 (b24c23e)
Si           0.05581652094110        0.82022476275736        1.26497047334307
O            0.55132332708713        2.16369958312440        0.49795355515181
C            0.27394773422527        2.67588897922430       -0.77993994122395
C           -1.13910352909657        3.18961754483957       -0.88962617140079
H            0.43430177771962        1.88786655506717       -1.52690567067561
C           -1.82108595206828        3.63631492747296        0.23249075767303
C           -1.76254817911441        3.24062005132155       -2.13094689003514
C           -3.11856546955743        4.10418228399426        0.11951188543256
H           -1.33431591143946        3.60443454153987        1.19474843213059
C           -3.05570282748732        3.71826857629872       -2.24426523526614
H           -1.23165205969095        2.89919841260572       -3.00942385273679
C           -3.73848283587838        4.14520629215056       -1.11738951213670
H           -3.64444256419170        4.43919912315393        1.00082426904008
H           -3.53285432220692        3.75269883140426       -3.21295581810295
H           -4.75062123337495        4.51149694060184       -1.20543155738782
C            1.26330751409571        3.83304069650402       -1.02954302833157
C            2.59954646798635        3.34164264976636       -1.27808087379866
H            0.92517766278276        4.41851920487036       -1.88858097393167
H            1.26664577129152        4.46945995817623       -0.14181118485868
C            3.69037735794205        2.89936494493706       -1.49381303674587
H            4.65815922250477        2.54563523470821       -1.68771280357678
Cl          -1.79730953464060        0.44002116470237        2.14022361583760
Cl           0.86067466582103        1.60202291736673        3.07966251736272
O           -0.51297252831120        0.10174420214794       -0.33747248648356
O            1.10025462034361       -0.50055247533039        1.46775749212769
C           -0.38894275217095       -2.22184525018051       -0.23890619530757
C            1.02770956874392       -2.18374644894381       -0.17778030662826
C            3.07907915618215       -0.98700257822630        0.34700079629826
C           -2.50456666548839       -1.08808548669848       -0.49747656446559
C           -3.21323462486621       -2.27762845262147       -0.41330898647566
C           -1.09041577397538       -3.44075397562241       -0.27507674199702
C           -2.45163637305094       -3.46583095233057       -0.31755398230178
C            1.81861865988793       -3.17077922037888       -0.79376393606760
C            3.16777619028786       -3.02165104638714       -0.89829439006795
C            3.83902578035216       -1.87171848090419       -0.39580531641984
H           -0.53170801489889       -4.35778890047758       -0.18982656844203
H           -2.94153276002777       -4.42200999798827       -0.28437985658642
H            1.32992905569930       -4.01654711781470       -1.24849226797366
H            3.72360806464957       -3.79260607133812       -1.39919204096205
C            5.32966338394234       -1.69442946288719       -0.68358937628631
C            3.55604201760710        0.20704988416259        1.10375964040773
N           -1.15686125744878       -1.08612211975723       -0.34493146945239
N            1.73652897017960       -1.19166490820290        0.47043122314435
C           -3.08533747311076        0.24626092501979       -0.82217050266290
C           -4.73842983917246       -2.35699303542076       -0.41050944209061
C           -5.34653088554869       -1.25966978779515        0.48127068306438
C           -5.27499779657197       -2.26151286626353       -1.84732760774487
C           -5.21511448218173       -3.70204502491247        0.16192392824956
H           -5.48051110826905       -0.32334020923499       -0.04702294377595
H           -6.32606041509216       -1.57355094572397        0.83414858825413
H           -4.71508408049925       -1.08109661511092        1.34758786773936
H           -6.36110043032763       -2.31654222205669       -1.83784141904274
H           -4.98605493756709       -1.33439643364014       -2.33321006512331
H           -4.89293061703970       -3.08621479615260       -2.44562536292153
H           -4.79278668128109       -3.87289538726542        1.14893204817385
H           -6.29864742440080       -3.68614726928436        0.25398994983423
H           -4.96372372614027       -4.53606996838631       -0.48839385896453
C            5.60525409476042       -0.30425385469810       -1.27804140826772
C            6.15163485489991       -1.93485768047898        0.59209675715332
C            5.83127940209395       -2.70551618208201       -1.72770903096013
H            4.93786529660089       -0.12710120881212       -2.11872957384427
H            5.47136807753304        0.49226644100809       -0.55829728311373
H            6.63063081414018       -0.25797836329712       -1.63889372919679
H            5.25798191095015       -2.63739524360397       -2.64929921110230
H            6.87035384610281       -2.48438399695036       -1.96204290057852
H            5.79640767995740       -3.72555319611257       -1.35389284741605
H            5.88693871263480       -1.25654414598211        1.39575912084764
H            5.99015477937723       -2.95031380361800        0.94772552814275
H            7.21070960082513       -1.81108902960289        0.37648181362725
H           -2.34394638947626        0.83407417316074       -1.35894087751964
H           -3.97022226388765        0.15327025366896       -1.43804195807930
H           -3.33092955941497        0.79317114892052        0.08557618892219
H            4.63089251499855        0.24621287315102        1.19882964854838
H            3.20257946386200        1.11684295012446        0.61394795353162
H            3.12134273999434        0.20308518464540        2.10283632452324
