75
 energy: -112.017524203798 gnorm: 0.000655543505 xtb: 6.5.1 (b24c23e)
Si           0.20474783097235       -0.76043404462268        0.10171137009455
O            1.18003505523174       -2.04562850193661        0.01232827790588
C            2.26499326457194       -2.51758261164433        0.76661587383413
C            3.41624106617841       -2.85597823789035       -0.14543661817926
H            2.57649923038510       -1.75260889440150        1.48700769173820
C            3.18812814054535       -3.24479466396952       -1.45807255713666
C            4.71897058547858       -2.80310987359439        0.33375402261112
C            4.25041050939512       -3.57133216255480       -2.28250842208739
H            2.17469502887595       -3.27479184807313       -1.82749445154823
C            5.77912185764958       -3.13757733801369       -0.48932881974155
H            4.89955922735781       -2.49441370224769        1.35385808095211
C            5.54687430082659       -3.52158970277076       -1.79966691296260
H            4.06496425810038       -3.86760799659126       -3.30466998205220
H            6.78930235317023       -3.09417256416801       -0.10886328491394
H            6.37573295237252       -3.77870343352027       -2.44281568761583
C            1.80466098555236       -3.77391801893114        1.53499624629895
C            0.76489816063678       -3.43039003886765        2.47993312723073
H            2.65987527395287       -4.20740282030683        2.05918047960206
H            1.41887382012905       -4.49955459361322        0.81377444238477
C           -0.10212417474370       -3.09074100490522        3.23118110802921
H           -0.85103600876712       -2.81778470229427        3.91284224082575
Cl           1.30157950242691        0.21539241708403        1.74358669028491
Cl          -0.99577259827260       -1.78271387596873       -1.37794372839760
O            0.40087967209033        0.51364555735002       -1.00641773679323
O           -1.15941693218916       -0.19397126577626        0.97408106990057
C           -1.00924638631186        2.26045937541115       -0.34483769621305
C           -2.17732244002665        1.44107740325199       -0.33674481445737
C           -3.35138425746046       -0.59052624053524        0.27917970824085
C            1.39570786157042        2.55944864600911       -0.49699523312395
C            1.30317930621591        3.89362874726308       -0.14298120773628
C           -1.11520003801230        3.64949359221293       -0.15843027256026
C           -0.00573768762148        4.43220719275378       -0.03819986766954
C           -3.37645175275465        1.89916098883719       -0.90736737076175
C           -4.47849694921837        1.09867381162267       -0.96857095989756
C           -4.48692192263885       -0.20480867606169       -0.41112940088537
H           -2.09608999627793        4.07440062224877       -0.02109160532218
H           -0.14340512050115        5.48000578288781        0.15728443182032
H           -3.38316502607346        2.86899018753782       -1.37736931825534
H           -5.35198494750101        1.47752472021124       -1.46731556065300
C           -5.70444678665165       -1.10494811277636       -0.60671008407475
C           -3.18902087477403       -1.82429025033791        1.10032689556835
N            0.27085844634300        1.80442691858528       -0.58162252640317
N           -2.25976598345898        0.21376457515709        0.28198900886574
C            2.64159953349402        1.82213158080028       -0.85586819634030
C            2.51216007831403        4.78090348327070        0.14515101731542
C            3.52384503969855        4.04340455664507        1.04149836381310
C            3.16313866171309        5.23867769405724       -1.16919957416632
C            2.09423329832617        6.04917932556164        0.90679862290306
H            4.20907613287249        3.42458257202262        0.47476926477737
H            4.12216874596371        4.76461797351643        1.59331197125146
H            3.00472409698141        3.41315518421671        1.75873686031520
H            4.03079578158820        5.85793071802969       -0.95305089349740
H            3.48529722254155        4.40343283266910       -1.78324501617758
H            2.45602572736348        5.82664226019142       -1.75074799633852
H            1.55070801438931        5.79472943446376        1.81328148659773
H            2.98553593955852        6.60471527547275        1.18971177221854
H            1.48686229756771        6.71108194798871        0.29468333396585
C           -5.26820288036518       -2.53143926275098       -0.98846431723792
C           -6.56971763675524       -1.10756657482020        0.66311357776395
C           -6.58750809586297       -0.59213687352822       -1.75550345176991
H           -4.36764898311398       -2.50121440473060       -1.59598254349114
H           -5.07842522918519       -3.15299819602099       -0.12155227343839
H           -6.05287143603819       -3.01532302838852       -1.56507570806641
H           -6.00769518704752       -0.48638928220420       -2.66885693368615
H           -7.38454750805123       -1.30903039951886       -1.93941907615457
H           -7.06129720837843        0.35633209991148       -1.51522017959377
H           -6.02051092513001       -1.45146744251603        1.53423744118012
H           -6.93072668850958       -0.10242617576867        0.87154481941858
H           -7.42848724630491       -1.75975639683429        0.52158642488003
H            2.42426755772107        1.11974278305364       -1.65865619497181
H            3.42932225321076        2.48896787860635       -1.17700641492609
H            2.97973666256126        1.24091843550379        0.00176084847968
H           -2.68924571469521       -2.59173151896655        0.51100015921912
H           -2.54989577894632       -1.60347362109650        1.95279222929143
H           -4.13852133224884       -2.19861222089048        1.45721592972075
