75
 energy: -112.020316609387 gnorm: 0.000733290890 xtb: 6.5.1 (b24c23e)
Si           0.33388273853629       -0.96499084961517        1.38844015749551
O           -0.64242203590942       -2.08881532894458        0.74687075010361
C           -0.90244114686372       -2.51827892313301       -0.56936061218936
C           -2.34310550371345       -2.22114292264878       -0.90333120579550
H           -0.24396457144540       -1.99258202462486       -1.26576110597855
C           -3.33360005930506       -2.47848091411335        0.03742414697324
C           -2.69736620653808       -1.69196631020172       -2.13629558026665
C           -4.65948974282589       -2.21198132025488       -0.25414320780483
H           -3.05106729550151       -2.87453933102151        1.00160287358622
C           -4.02520303854443       -1.43275433232149       -2.42937552932326
H           -1.93015659601818       -1.48315713188472       -2.86866717465582
C           -5.00819895478257       -1.69245247191889       -1.48977623805401
H           -5.42217739518088       -2.41149014919172        0.48417687808911
H           -4.29282962850983       -1.02452972007013       -3.39326044991634
H           -6.04314778451234       -1.48589153206871       -1.71870745991407
C           -0.63753158320805       -4.03383269829040       -0.65405445833039
C            0.76527599042896       -4.32414014611582       -0.45503794244471
H           -0.96090171113433       -4.39946891745287       -1.63279223369759
H           -1.22138178733022       -4.53085073906213        0.12414501460822
C            1.93296338654696       -4.52106016879316       -0.28372153153675
H            2.94922583326867       -4.72202261098496       -0.12130006409611
Cl          -0.44489089099116       -1.45588621924749        3.31124872386394
Cl           2.29918850674067       -1.18872184273106        2.01911830037283
O            0.88984777607461       -0.44977898850431       -0.30095674179198
O           -0.21215288656432        0.62396631232988        1.65594944550992
C            1.49690141241986        1.79333889679149       -0.29893451389605
C            0.15337329620818        2.18707204101898       -0.07159764253092
C           -2.07625145002274        1.67580242490848        0.75144862242806
C            3.11511375111512        0.05777388621940       -0.74531501552053
C            4.15598219444549        0.97293509581404       -0.81148741835113
C            2.52344538982124        2.73648387780295       -0.48506410689503
C            3.81018677675052        2.33941129931023       -0.69115878806199
C           -0.38177145980606        3.35223952780287       -0.65099615975305
C           -1.71765665724887        3.60980687276786       -0.59960570852626
C           -2.62956965587593        2.72639918761481        0.04364939292305
H            2.28517183965492        3.78238294572918       -0.38572994201168
H            4.56741029233354        3.09816626957842       -0.77007851232374
H            0.27542929761113        4.00312872866000       -1.20377444942707
H           -2.08029432158897        4.49927811303228       -1.08106785861928
C           -4.13051664113542        2.98726844224537       -0.06732284140177
C           -2.77895823175508        0.71019067055262        1.64527062112313
N            1.86355242991758        0.47492102780134       -0.43321185124634
N           -0.73008179822804        1.46693684905946        0.70825272083795
C            3.21934360413939       -1.39750187667424       -1.05589808799556
C            5.62017058325669        0.58031374099731       -0.99890366832288
C            5.98193817490888       -0.63752340275204       -0.13003920423542
C            5.90583880103240        0.30371752194023       -2.48336125946430
C            6.55335839397339        1.72223634657257       -0.56425190461992
H            5.75873336654008       -1.57659356831215       -0.62177418199181
H            7.04795560422491       -0.63251866248728        0.08467140031623
H            5.44555072419258       -0.60310609970506        0.81455385558316
H            6.94910675557272        0.02409711525452       -2.61063974619693
H            5.28871915312124       -0.49752613042364       -2.87866090657139
H            5.71338148205132        1.19668639028052       -3.07466633119689
H            6.33715133908641        2.03078777040564        0.45540534851277
H            7.58333072160892        1.37510125941284       -0.60306706768010
H            6.48303682674534        2.58250105445894       -1.22507000837932
C           -4.85011931751344        1.74087216513614       -0.60602918970051
C           -4.70268517886330        3.43960955237333        1.28558055666215
C           -4.44312659493416        4.11399428843826       -1.06559013979277
H           -4.46230087472675        1.49305960886564       -1.59194155452715
H           -4.72945520508569        0.86732658063496        0.02150734416258
H           -5.91467906148486        1.94493951090480       -0.69906259844832
H           -4.02381307760703        3.90212280648816       -2.04621289959214
H           -5.52236033660306        4.19562109853194       -1.17536483068285
H           -4.07831730874574        5.07636320282045       -0.71531657405092
H           -4.59959066065130        2.69073473115421        2.06204976596676
H           -4.18748288367729        4.33803133696496        1.61895839931845
H           -5.76001869390051        3.67127198811803        1.17748227268207
H            2.26761698615943       -1.75335983180006       -1.44406406950886
H            3.99134312224970       -1.58905630931599       -1.78981452077990
H            3.42347316383265       -1.96331453421712       -0.15005676946856
H           -3.82404133589684        0.94074288519110        1.78603988222182
H           -2.68798936718184       -0.29730489151621        1.23770399237668
H           -2.28662878316324        0.69425947640699        2.61802839185029
