75
 energy: -112.022863831313 gnorm: 0.000572632235 xtb: 6.5.1 (b24c23e)
Si           0.18488182438435       -1.07565146521570       -0.37196172550036
O            1.69277769043290       -0.57894787256706       -0.00039132540691
C            2.71672506051648       -1.08315876810282        0.82853904414401
C            3.13774829246175       -2.47606994807613        0.41303900936292
H            3.56620988127598       -0.40349426023119        0.63695919086354
C            3.23480147653647       -2.74652107951247       -0.94739337030011
C            3.45112821340383       -3.48043863884195        1.31753848399490
C            3.61112877018727       -3.99742120577268       -1.39691335659120
H            2.98794731766583       -1.97307430391003       -1.65996943945733
C            3.83723760926772       -4.73088043932447        0.86676989599012
H            3.38092291537980       -3.30872766747718        2.37960978708779
C            3.91527303392056       -4.99594114623936       -0.48832561372609
H            3.66239628097740       -4.19155253525799       -2.45796078282970
H            4.06804780085509       -5.50548676130052        1.58341779070703
H            4.20584896084201       -5.97660518786385       -0.83510264122080
C            2.32005050859047       -0.93918843295685        2.30500979631677
C            1.90802448764954        0.42147810054665        2.57221235299620
H            3.17317521475721       -1.18730731911638        2.94001098412553
H            1.49017094855379       -1.61644397495703        2.51694657378490
C            1.57507586362391        1.55828541639148        2.74137596910273
H            1.26895526515315        2.54394713639139        2.92629908663177
Cl          -0.26172475746081       -2.00049376700877       -2.15926004710427
Cl           0.19823820722258       -2.94575299562338        0.74280430336122
O           -1.04621960229653       -0.59493661362672        0.70411851714413
O           -0.05620356824348        0.45115283499805       -1.31018776911169
C           -1.98038805609743        1.53321572903892        0.31403338583849
C           -0.73070042823943        2.16695129912146        0.10699252953879
C            1.42987025552737        2.20560386800631       -0.96981294232497
C           -3.32907357503149       -0.48673104038030        0.27749142205264
C           -4.50348327404255        0.24262771451910        0.23670946108116
C           -3.17279888062501        2.26839710458395        0.45138933802380
C           -4.38429659558687        1.64869537875241        0.41520566898593
C           -0.43753445910273        3.43636059329194        0.63978200699198
C            0.78763206674414        4.00312114923765        0.45846473724439
C            1.78887382875305        3.38224347339546       -0.32707969677765
H           -3.11614325250855        3.34283869161500        0.50744458423409
H           -5.26655899671237        2.25650230937055        0.49757282930117
H           -1.17571677189793        3.92012102853349        1.25785149589079
H            0.98195219865796        4.95177660463043        0.92642194518312
C            3.17966255066008        4.00853424451504       -0.40627641749464
C            2.20742211489321        1.50464922572604       -2.03353122539186
N           -2.13422688450735        0.16251543371757        0.36865890843725
N            0.23866371265168        1.62263406558416       -0.70027325645411
C           -3.18499269502704       -1.97153797607095        0.27567123121991
C           -5.88613440524547       -0.36958918722940        0.01843940466917
C           -5.89828447110138       -1.22106634562549       -1.26092826482008
C           -6.31989807305366       -1.18117579087250        1.24933067019849
C           -6.96109494421988        0.70999033759320       -0.18885842347045
H           -5.21687200029188       -2.06078696672302       -1.22487945176790
H           -6.90029019838028       -1.60911389461567       -1.43120268535055
H           -5.62283113643684       -0.60277721940488       -2.11264517043321
H           -7.31839051967202       -1.58235527713851        1.09026802848456
H           -5.65494027476255       -2.00881853131984        1.46765989518919
H           -6.34535527661793       -0.53493349377401        2.12436212789935
H           -6.70352113918364        1.37144665971517       -1.01252368134388
H           -7.90321339823123        0.22425317027951       -0.43340588623020
H           -7.12346411658283        1.29778465726028        0.71120481767265
C            4.26088168186652        2.93575911050554       -0.19778499309088
C            3.37214264442771        4.74736696943952       -1.73924709704107
C            3.38658490083895        5.04313794974461        0.71221063120470
H            4.00490524965549        2.31989573011255        0.66204879457548
H            4.38666945368348        2.29197109648401       -1.05888340184985
H            5.21887804896171        3.41330275648372       -0.00343929762508
H            3.19050830012781        4.60555857941829        1.68791354250744
H            4.42077875557604        5.37983536888411        0.69763645688604
H            2.76181385213365        5.92216895786144        0.57556895056418
H            3.27450512248569        4.09092056445978       -2.59773239256738
H            2.63004740326085        5.53706178586614       -1.83670779562208
H            4.36130800292621        5.19872619515969       -1.76924795095178
H           -2.51979718244422       -2.27275543483354        1.08475161906045
H           -4.12519790397435       -2.48984774571627        0.38916550053806
H           -2.70781499887888       -2.29177755609970       -0.65189064655362
H            2.73652764267858        0.65214591005737       -1.61402948517861
H            1.50663968268702        1.10910530238718       -2.76807033998621
H            2.90723474360865        2.16339633910355       -2.52978519551289
