75
 energy: -112.020572527591 gnorm: 0.000614719764 xtb: 6.5.1 (b24c23e)
Si           0.43479877483384       -0.50559907772942        1.29785161765355
O            0.83604586932011       -1.89825133503113        0.57223273028712
C            1.41233852180867       -2.21476715127214       -0.66880298851818
C            2.71996195289623       -2.94014354127867       -0.46617494918488
H            1.58429646906889       -1.29827077226432       -1.24051423306427
C            2.98186202147261       -3.61164781642295        0.71925288138200
C            3.66906005028144       -2.94908756350452       -1.48083016179956
C            4.18150832244045       -4.28067499544839        0.88846661385413
H            2.24692280414017       -3.58943685462096        1.50892498461126
C            4.86456011118098       -3.62345331641171       -1.31208758732344
H            3.47053928747879       -2.42199411695155       -2.40436991051396
C            5.12326776612505       -4.29023048321783       -0.12591981474402
H            4.38059313784656       -4.79502153874386        1.81684490445298
H            5.59821423291984       -3.62408182458406       -2.10525928215862
H            6.05970282732228       -4.81176965817006        0.00722099683214
C            0.41805718402821       -3.09800581596243       -1.45304724107676
C           -0.69929782595072       -2.30336111688996       -1.91270321145383
H            0.92913176578681       -3.54583315620047       -2.30900858633196
H            0.06861475371524       -3.89484532341917       -0.79168844441492
C           -1.58807527994789       -1.58749333499971       -2.27348464245390
H           -2.37818029880682       -0.97954392725751       -2.59881872684503
Cl           1.75227629370007        0.81749364805691        2.22059861039576
Cl           0.09845393670133       -1.59020616024607        3.10468661130241
O            0.56751963674805        0.39353265542858       -0.30018140155793
O           -1.17199109989843        0.02038190799865        1.44199183784240
C           -0.77836467219784        2.29164664047500       -0.25929580597927
C           -1.95992659275441        1.50726909992149       -0.21994351588891
C           -3.10411189679576       -0.57038165413356        0.31666161385511
C            1.62372584505321        2.45392575716791       -0.44737638863894
C            1.59215678050070        3.83772582799597       -0.36614485974554
C           -0.82874739041191        3.69730835188436       -0.30808656233249
C            0.31275858268031        4.44042877782849       -0.31616638795395
C           -3.13730320348002        1.92658360376516       -0.86651948111218
C           -4.22675428470885        1.11326038153128       -0.94819625217595
C           -4.22683558454495       -0.19956847215833       -0.39893747940661
H           -1.79064078634850        4.17973394189454       -0.25763971861581
H            0.22036077550292        5.51109293085097       -0.29168674413929
H           -3.14202739019649        2.88674056221541       -1.35584802030903
H           -5.09272439038246        1.47884630160644       -1.46912253545441
C           -5.44344892735027       -1.10111444744149       -0.60001387767012
C           -2.87097227467106       -1.84368588081098        1.05894735374847
N            0.47822444025738        1.73905617332168       -0.32384551094576
N           -2.05814659448350        0.29706642729273        0.43630701340849
C            2.83224804897187        1.62620979727435       -0.73581819356047
C            2.84273304353203        4.71236059010653       -0.31442523933812
C            3.90313394090917        4.09924135398274        0.61840964999656
C            3.40361877290516        4.91926753275688       -1.73010478313647
C            2.51268802024525        6.10390939793487        0.24978207186275
H            4.54215733312815        3.38795081154146        0.10884382311935
H            4.54551947918485        4.88348756114747        1.01161523878098
H            3.42748423928405        3.59828150623176        1.45743079384169
H            4.29913780270972        5.53462932578432       -1.68385892446279
H            3.66057832099005        3.98080205005976       -2.21221921644246
H            2.66915613925873        5.42503687365125       -2.35371285005992
H            2.02277066834508        6.02181874852128        1.21675429495922
H            3.43605004247630        6.66295892930587        0.38300477213983
H            1.88602449231511        6.68115562199980       -0.42539425363168
C           -5.05126953716773       -2.37476425558813       -1.36789150703989
C           -6.09217284605357       -1.42437531664805        0.75640393277145
C           -6.53947537044695       -0.42165572924979       -1.43662639164071
H           -4.85564613659525       -2.12895161678778       -2.40973152148407
H           -4.16250223419063       -2.85435135970836       -0.97574370203242
H           -5.87131083662627       -3.08884405709406       -1.33950375264073
H           -6.17805021226067       -0.13853168792378       -2.42245561557790
H           -7.35639452069836       -1.12635162312018       -1.57696934977374
H           -6.94187980258027        0.45416607681953       -0.93323289183483
H           -5.45209066917966       -2.00350435137913        1.40994143806144
H           -6.34474128961584       -0.49879229061499        1.26967391535208
H           -7.00962810146191       -1.98731447649592        0.59810767244677
H            2.53220293656978        0.75448235818609       -1.31383217995137
H            3.56557766223976        2.18399100961254       -1.30296691365015
H            3.28129267374749        1.26710919048993        0.18789651927296
H           -3.65115303808602       -2.57553925084061        0.91446188135674
H           -1.92146559088851       -2.27115377204538        0.73789660816844
H           -2.76783408191268       -1.63223960200131        2.12398522628247
