75
 energy: -112.021851310910 gnorm: 0.000399675883 xtb: 6.5.1 (b24c23e)
Si          -0.11839791114476        0.81053475682090        0.70507421465134
O            0.33377275742973        1.87816976801202       -0.43128271231989
C            0.28688990514404        3.28577064986349       -0.34944297373288
C           -1.14621989826402        3.75096283753760       -0.31799577841400
H            0.79418149538872        3.60503958172929        0.56952368739065
C           -2.05814355348612        3.21442506441427       -1.21703313320730
C           -1.57834054871344        4.67431005221578        0.62212963628828
C           -3.38685318699964        3.59362120190122       -1.17628058364157
H           -1.71898915299288        2.48113915756845       -1.93304216287201
C           -2.90734677339562        5.05936210118698        0.65754149843170
H           -0.87519114292999        5.07664185412946        1.33622926884942
C           -3.81314329394121        4.51994714081548       -0.23956926887523
H           -4.09175186488235        3.16479291908061       -1.87418701196241
H           -3.23879157869033        5.77419937344498        1.39611230155846
H           -4.85174100861916        4.81464030515793       -0.20374648506625
C            1.02339665791346        3.85702502980098       -1.57274986271821
C            2.44210549947460        3.58400294202199       -1.50861298207904
H            0.86145703420695        4.93763644343169       -1.60623972723416
H            0.60664208547501        3.40603287788739       -2.47628441298929
C            3.61194527425858        3.34544518062211       -1.42570921060592
H            4.64270582156363        3.15804462484689       -1.37323923607061
Cl          -2.05334891544886        0.58901473613489        1.44938889339759
Cl           0.44017851111695        2.01022057031819        2.44146810494086
O           -0.44986178039363       -0.29971996338964       -0.68634130171104
O            1.02663126563290       -0.28362829338640        1.30564141760340
C           -0.24836992509812       -2.50365010922437        0.04447151300989
C            1.15283157464880       -2.35494391503359        0.18960368124484
C            3.07169375302116       -0.87930998336499        0.37649152106884
C           -2.36016086156545       -1.61664547834138       -0.71845622806158
C           -3.03616896133156       -2.77449053832146       -0.36461373801527
C           -0.90321238254273       -3.72327831203804        0.29649077029381
C           -2.25185605618214       -3.83787363144565        0.14241110680659
C            2.04705941955830       -3.41212342485503       -0.06486597821975
C            3.38235419766755       -3.17649281374098       -0.18966593744562
C            3.92871836776522       -1.86765632861157       -0.07211139754877
H           -0.32662123093649       -4.54584967048164        0.68560983685913
H           -2.71377505095513       -4.77242438358398        0.40474387465338
H            1.64974677717159       -4.39847755220941       -0.23857551185342
H            4.02663955971149       -4.00815942794878       -0.40912985910138
C            5.39308591820045       -1.63002836016384       -0.43411155078552
C            3.41425278932808        0.51874791028578        0.76968945418455
N           -1.03918509652511       -1.48973782425549       -0.43950125134759
N            1.75145858455737       -1.16316892751640        0.54453399156434
C           -2.93133762844805       -0.46582146056576       -1.47749026925613
C           -4.54912590470367       -2.94352089924534       -0.48525569510315
C           -5.28452276791542       -1.67233767351065       -0.02535085951010
C           -4.92567332360395       -3.30570423614765       -1.93028624836613
C           -5.04381443517386       -4.08776276263068        0.41452740513640
H           -5.37851176922866       -0.93930380321177       -0.81728452321340
H           -6.29089230941822       -1.92660742040566        0.29865067844617
H           -4.76354816729261       -1.21404085280258        0.81106848529015
H           -6.00338078395143       -3.42861239571274       -2.00929782355970
H           -4.61768073614522       -2.54168993039332       -2.63775579396620
H           -4.44948893622010       -4.24054564100478       -2.21884272285572
H           -4.71862517937918       -3.93886937557306        1.44108101314651
H           -6.13115449537250       -4.10757550002093        0.40211927905691
H           -4.70393881341580       -5.05928571549282        0.06479322761964
C            5.50405376487503       -0.49762477886531       -1.46727716863367
C            6.22579819741978       -1.33973954928268        0.82463718994678
C            6.02587315619614       -2.86464122427329       -1.09633090258266
H            5.00608285620708       -0.79559927798784       -2.38773246825887
H            5.05270042001861        0.42742786098780       -1.13378818126487
H            6.55161248167291       -0.30756838394045       -1.69197384479864
H            5.45280343157809       -3.18669513501187       -1.96247843537243
H            7.02676412424601       -2.60656354676150       -1.43575574507678
H            6.12208228956498       -3.69241067831844       -0.39812831878265
H            5.91945646879803       -0.43516890791361        1.33715231091997
H            6.13205839169226       -2.16713867475752        1.52485963082045
H            7.27473514909118       -1.23682328606008        0.55481161293697
H           -2.13762218780119       -0.02084442833104       -2.07407767516774
H           -3.73121292045399       -0.78682519625411       -2.13264100290410
H           -3.29826416424286        0.30120006815471       -0.79903500028734
H            2.91875960063381        1.22078151863374        0.09615093928478
H            3.02322573989996        0.71645392267932        1.76780522261941
H            4.47630237672217        0.71334822264263        0.77076920681267
