75
 energy: -112.020267524818 gnorm: 0.000995339043 xtb: 6.5.1 (b24c23e)
Si          -0.36329561988208        1.07078832194948        1.26088575725830
O            0.43455579355915        2.23086253894018        0.45762638253016
C            0.56647763180979        2.55459591254431       -0.90657963573003
C            2.00936980037409        2.38607330382121       -1.31230995474123
H           -0.06421693259964        1.89203653379061       -1.50506077544363
C            3.01832631118446        2.84973844585414       -0.47628680088005
C            2.34762426609742        1.76698602737992       -2.50739724720884
C            4.34617603952344        2.69584053364816       -0.83302937839985
H            2.75156253664840        3.31605780921194        0.46057078231795
C            3.67622439678602        1.62005872988590       -2.86647447397241
H            1.56670605062294        1.39880288299683       -3.15790596803897
C            4.67756950164996        2.08354833439846       -2.03031767109941
H            5.12376408326823        3.05542150983059       -0.17523969433377
H            3.93049525263963        1.13961097783821       -3.80008668675258
H            5.71382129484834        1.96415780980522       -2.30994479600185
C            0.11789350180596        4.01448862735035       -1.11035435266705
C           -1.29034909753445        4.16471379005278       -0.81597390500965
H            0.31968534791702        4.30975405122605       -2.14381900841293
H            0.69541914973317        4.65196379525084       -0.43673763722029
C           -2.45618942526056        4.24242896057023       -0.55852269514473
H           -3.47096725594593        4.33792931234316       -0.31160621945974
Cl           0.39793541952361        1.85743718158564        3.08524426255195
Cl          -2.33217052450898        1.14751548441189        1.91447353345776
O           -0.88703913355374        0.28571119603454       -0.33547729069288
O            0.40081146935080       -0.39239645680223        1.67843913664292
C           -1.25591144990816       -1.98736052228290       -0.02069600829327
C            0.12728198657640       -2.20939673655620        0.19651545966216
C            2.32040697572756       -1.33570098452436        0.77330879595666
C           -3.05189713101707       -0.49979240365612       -0.64681859675018
C           -3.99424414315145       -1.51444094912459       -0.55893835811079
C           -2.18611963422263       -3.04252309414743       -0.03165107129714
C           -3.50974979611472       -2.80739112624496       -0.25155285935245
C            0.76421204136557       -3.38886190626777       -0.23282033016830
C            2.12206723260121       -3.48795604659988       -0.23691504758797
C            2.95549560457065       -2.41611741661613        0.19026119198840
H           -1.84156874198631       -4.03435704702435        0.20918742102453
H           -4.18750026972331       -3.63978627226390       -0.19497100492160
H            0.16054615153847       -4.18783219941066       -0.63066292062996
H            2.56248048917618       -4.39927477319050       -0.59764345535847
C            4.46704033442891       -2.51556601184696       -0.00341111566896
C            2.94718487538769       -0.16833574810943        1.45908050883807
N           -1.75935217531611       -0.74310596844221       -0.31867922095486
N            0.95906801680204       -1.29034085043620        0.80601340150085
C           -3.31018588901282        0.88264865926185       -1.14470551567289
C           -5.49140116345435       -1.30324003300745       -0.77566760725261
C           -5.97810229642232       -0.01714941666491       -0.08473343940362
C           -5.80244727466109       -1.27250813442157       -2.28053432684180
C           -6.30277241997796       -2.45983755899517       -0.16937837942643
H           -5.84671733816713        0.86071743189149       -0.70528426012249
H           -7.03964702964850       -0.09763922546785        0.13663471967369
H           -5.44685172733022        0.13483411374671        0.85097301389277
H           -6.86623777098382       -1.10531244810981       -2.43293691413063
H           -5.25730066816379       -0.48798161289361       -2.79685591628916
H           -5.53343664409991       -2.22261216459052       -2.73784582749668
H           -6.05609043468503       -2.59570939230294        0.88056961294521
H           -7.36291602091132       -2.22789181859870       -0.24200655403042
H           -6.14478047943870       -3.39415219709601       -0.70213515093858
C            4.97433922541088       -1.31361983333549       -0.81626201057720
C            5.18265546367508       -2.63755134943068        1.35132181643810
C            4.86177808433544       -3.76364420673357       -0.80949937703366
H            4.51426008813822       -1.32073854462282       -1.80237700354100
H            4.75055493549624       -0.35783076306965       -0.35942736579926
H            6.05255688535319       -1.38519093248610       -0.94217862169056
H            4.36431121678798       -3.78650983180085       -1.77602551612950
H            5.93457993677803       -3.73991822301385       -0.98824933917340
H            4.64204942971731       -4.67965873225981       -0.26680330411565
H            5.03576589021932       -1.77495049699287        1.99007902234825
H            4.81250919110220       -3.51206438453181        1.88236910569033
H            6.25151048973783       -2.76150684201157        1.19120113593250
H           -2.40237240973349        1.28194136016383       -1.59082616306497
H           -4.09822539662193        0.89312154288300       -1.88673221779415
H           -3.57247786618464        1.53956590846604       -0.31887053350583
H            4.02558508997134       -0.20941073902120        1.47824932265292
H            2.63714892120119        0.75315394475625        0.96598917170033
H            2.57474975678733       -0.11013463689395        2.48257796933452
