75
 energy: -112.025126424037 gnorm: 0.000277568794 xtb: 6.5.1 (b24c23e)
Si           0.28791506024680       -1.47039062539281        0.70923238297762
O           -1.31107029185306       -1.31015364026457        0.41719183863674
C           -2.28600238408131       -2.23026583324094       -0.00181775527615
C           -2.93409326762543       -1.77925174261404       -1.28612778010468
H           -1.81757660857011       -3.20988021591382       -0.15045023181754
C           -2.95849956344580       -0.43841690883612       -1.64051081203303
C           -3.55457813453211       -2.70910130833411       -2.11134210966781
C           -3.59132075847936       -0.03006035503109       -2.80129601475220
H           -2.46913914883292        0.28320557463999       -1.00623503855642
C           -4.19313025428471       -2.29999158349718       -3.26774728327773
H           -3.52828688957283       -3.75644731709695       -1.84752505582831
C           -4.21465039354015       -0.95906386937449       -3.61548543407970
H           -3.59640303920225        1.01741420468538       -3.06836279703756
H           -4.67244463624987       -3.02998433736185       -3.90331296534603
H           -4.71161111569708       -0.64150873033831       -4.52042422691061
C           -3.36507659553762       -2.35801262640578        1.09696912302036
C           -2.74916094328060       -2.70064068669069        2.36096132745178
H           -4.07671595931623       -3.13258276420745        0.80253013696738
H           -3.89930108480925       -1.40749119264010        1.18795805957604
C           -2.16698673158569       -2.94819650346052        3.37675848059304
H           -1.66512235939849       -3.18102215811423        4.26758449927682
Cl           1.10350559898671       -1.99573023784094        2.52495669461475
Cl           0.53104305033922       -3.44397591403066       -0.13377679335989
O            1.26888134620707       -0.96200393499957       -0.58345938637788
O            0.32362838120263        0.20834331305610        1.38636785415639
C            1.53566074972692        1.37708654766879       -0.78580218421384
C            0.21886056340179        1.71333908080664       -0.38596116920845
C           -1.56357208003300        1.53938649842922        1.24006673421379
C            3.43398198952883       -0.13081460115713       -0.63221659169956
C            4.31285955429779        0.86187047380039       -1.02352468254709
C            2.40019117562002        2.32997493861049       -1.35785574477978
C            3.73284058307169        2.07878163583790       -1.47871328525061
C           -0.53837475777639        2.70263340794406       -1.04164107317727
C           -1.78353459531757        3.03807558486617       -0.60248984948654
C           -2.34850920402806        2.46412284660499        0.56357090800692
H            2.00382876372399        3.29444903665692       -1.62919082135162
H            4.35611686383863        2.84473526597976       -1.90234160541130
H           -0.13935251175685        3.14879553846179       -1.93721444625717
H           -2.33699720974308        3.76643697509201       -1.16665322755924
C           -3.75590013492383        2.87039990650902        0.99706357827754
C           -1.84633358852705        0.89001299611436        2.55337990217078
N            2.09606480200397        0.12850721837585       -0.59946622389143
N           -0.36642172857352        1.16383565015125        0.72853170024745
C            3.75017973009179       -1.54212385224276       -0.26193764141191
C            5.83313264467686        0.71861535574220       -0.99669193558372
C            6.30496398488179        0.35899240241141        0.42120352060443
C            6.29992896135668       -0.31280525766519       -2.03606048266203
C            6.54073112817830        2.03624099094973       -1.35170774315359
H            5.86834313066001       -0.55626556330684        0.79969823347879
H            7.38697846062453        0.24675888069327        0.42948468786397
H            6.04017837861193        1.16170437387356        1.10626433266977
H            7.38612762496684       -0.37231682553618       -2.03038445959254
H            5.90712117914082       -1.30640234277268       -1.85635619151352
H            5.97941688199951       -0.00249576370979       -3.02849724401863
H            6.23586973975416        2.84218058744094       -0.68852625725839
H            7.61372929461905        1.89906746184797       -1.23663812556104
H            6.35807287241875        2.32672062857371       -2.38335966860802
C           -4.64582141169569        1.62979632442404        1.17469336432984
C           -3.69791269222630        3.71723139795926        2.27832596566286
C           -4.45304337671689        3.73562658536363       -0.06499635382830
H           -4.67567099797212        1.06524180125013        0.24439788653895
H           -4.30375019930193        0.97088823541973        1.96277427315811
H           -5.66027196132554        1.94005900797501        1.41684741290353
H           -4.50505336704727        3.22093678693897       -1.02141310812689
H           -5.47182684117397        3.93624647917888        0.25938514038440
H           -3.95836190486184        4.69529430666943       -0.19358854296196
H           -3.25856135075177        3.18756045295869        3.11616928369285
H           -3.10397841007074        4.61162114094512        2.10095247523451
H           -4.70251244326110        4.02359778840539        2.56151233351479
H            3.18928979923432       -2.21883179095113       -0.90715437001405
H            4.80032525543901       -1.78044421969248       -0.33613171143560
H            3.41093409534639       -1.73393162106812        0.75720544385618
H           -2.02755331422880       -0.17521064329758        2.41389954286054
H           -0.95184664540921        0.96577524390997        3.17230104052803
H           -2.67843375757877        1.33467203987653        3.07922726752848
