75
 energy: -112.025563523836 gnorm: 0.000741970149 xtb: 6.5.1 (b24c23e)
Si           0.27258246965887       -1.17887004715669       -0.35259116588734
O            1.67390433915183       -0.58855789072037        0.24073254978098
C            2.57240703548561       -1.15761346939409        1.16142864072891
C            3.39698502726305       -2.26044106821508        0.54736656061646
H            2.00612340169057       -1.56123641085447        2.00882040837434
C            3.71182958814576       -2.24796748083342       -0.80319626996710
C            3.86386596657034       -3.29803142593464        1.34343067247802
C            4.47454627678857       -3.26223819601337       -1.35418095733316
H            3.33645578234261       -1.45526510849581       -1.43338550482124
C            4.63152317465469       -4.30808713561213        0.79427234285264
H            3.60754131982475       -3.32076511221063        2.39272261807942
C            4.93848258991103       -4.29272321341299       -0.55616753058004
H            4.70097381675268       -3.24817754368913       -2.41012671619439
H            4.98173168641317       -5.11610296985114        1.41978806289990
H            5.53018037503035       -5.08719204176035       -0.98667935618635
C            3.48939120616423       -0.02616890892123        1.66670455780710
C            2.70350655377487        1.01283644169239        2.29540645486199
H            4.20118746228200       -0.44233800475589        2.38363899528807
H            4.04389871052612        0.39095498821989        0.82185358743467
C            2.00014501607448        1.84625377226930        2.78809479985468
H            1.40455267261962        2.58168371356929        3.23977900842385
Cl           0.10361237452849       -2.04655386741520       -2.21238907772310
Cl           0.35044852189208       -3.08786956730953        0.68094749806800
O           -1.09349559576090       -0.85396238827816        0.60841325511582
O            0.01149193922550        0.36516463430820       -1.24928293551404
C           -2.12617147496037        1.23259799357553        0.25246085215204
C           -0.91450713540481        1.96266260936612        0.17009097607148
C            1.26655367700107        2.27112421784622       -0.82288359141497
C           -3.32623108705135       -0.85936845329561       -0.04138181907148
C           -4.53828464089588       -0.20124759194156       -0.14384537715486
C           -3.37355986276140        1.87944690238825        0.34320632845694
C           -4.53196898381237        1.18980193556041        0.15416294096011
C           -0.75820971206944        3.21755153956558        0.78755131615859
C            0.38646900261790        3.93891189791888        0.63384065835461
C            1.44741165638227        3.49334033946912       -0.19148363204397
H           -3.39557461783914        2.94736766026829        0.48426517896972
H           -5.45845362759162        1.73168732546313        0.20538430396375
H           -1.54559880804541        3.57603391408795        1.42998555099701
H            0.46631764009462        4.87455669323879        1.15689485370370
C            2.69351449346139        4.36354282347420       -0.34917150437003
C            2.17845383923842        1.62051623004762       -1.80845281648713
N           -2.19237490439119       -0.14593993222932        0.20631544267993
N            0.14458310670496        1.54470923183633       -0.59873678216731
C           -3.08138260784159       -2.32846951844682       -0.12904373100296
C           -5.84763037959837       -0.87410452395835       -0.55201331598638
C           -5.66661053150816       -1.63096532202311       -1.87742583672313
C           -6.35640845248064       -1.79725926796199        0.56592698320278
C           -6.96003593428278        0.15624516480820       -0.80677992030859
H           -4.97522819674175       -2.46030863091720       -1.80661532127175
H           -6.62606981327491       -2.02351317089360       -2.20739381460214
H           -5.29686935571896       -0.94906533911753       -2.64019952934663
H           -7.29270576309447       -2.25981773507189        0.26171425385784
H           -5.65532406729681       -2.58570159163152        0.81481053268285
H           -6.53784470105863       -1.21662609048219        1.46807256328294
H           -6.65595738782359        0.88908452519200       -1.55033805374493
H           -7.83817087649254       -0.36117286792614       -1.18678722976677
H           -7.25600372286091        0.66743673045373        0.10590539382051
C            3.96294411262787        3.57080897950099       -0.00075390514378
C            2.75641792079939        4.94728038131058       -1.77016355548506
C            2.67751337238967        5.56440616776087        0.61009170916609
H            3.85892680320836        3.14125074203235        0.99324031203876
H            4.16993832657536        2.76871968333664       -0.69738171762504
H            4.82147619848499        4.23928428705019       -0.00037947525538
H            2.61679499785898        5.23910996750933        1.64556644048427
H            3.60452371302393        6.12111609339146        0.49118391653790
H            1.85964629635691        6.24671637468165        0.39170030410874
H            2.78078384157279        4.18527707300746       -2.54091421094876
H            1.88372618566976        5.57208591165337       -1.94932647142173
H            3.64644634271584        5.56389761764638       -1.87471112849367
H           -2.46396299090493       -2.64466216798525        0.71147829549500
H           -3.99062249846519       -2.91075738694184       -0.12865709427961
H           -2.51067511490264       -2.55116841406328       -1.03193449085819
H            2.94913607564709        2.27932625598935       -2.17983445608147
H            2.63250015470360        0.74831224597566       -1.34131002184717
H            1.58492378106433        1.25321679027920       -2.64580480271216
