75
 energy: -112.018150560406 gnorm: 0.000992715108 xtb: 6.5.1 (b24c23e)
Si           0.36576398071036       -0.60487304952260        0.46518526287820
O            1.42770732367370       -1.75276445610228        0.86227701118440
C            1.73136404449607       -3.03963405400462        0.39162604892056
C            3.08362212279396       -3.03785905745739       -0.27525227049256
H            0.96624987552553       -3.36523278796060       -0.32205947164147
C            4.03743906896123       -2.08972636023482        0.06692871853938
C            3.39250346893065       -4.00474608433282       -1.22338729523191
C            5.28309329810461       -2.10502704813979       -0.53557091897223
H            3.78994114180970       -1.33823976061779        0.80106713748904
C            4.64093939748466       -4.02361341010401       -1.81852033766781
H            2.64924516852294       -4.74000970924780       -1.49798503188137
C            5.58884511500355       -3.07330830859042       -1.47640646381086
H            6.01824922055224       -1.36055093634653       -0.26626514402542
H            4.87357422150912       -4.77918077959149       -2.55483892370685
H            6.56238852175707       -3.08731154428913       -1.94445312751587
C            1.73242692091778       -3.99750904969956        1.59925785974022
C            0.39816410902055       -4.13365323575367        2.14016491773345
H            2.10695925191837       -4.97391609429825        1.28261482276335
H            2.39781224445959       -3.58863293036734        2.36385470748356
C           -0.72172860909069       -4.20841204278036        2.55424575205609
H           -1.69235361686549       -4.29794651838490        2.94093468175272
Cl           1.32751755780424        0.59137168654060        1.97749760664756
Cl          -0.71787463802422       -1.85947450688469       -1.00921250837770
O            0.58120580699303        0.49992415148326       -0.81114148531945
O           -1.08768613312888       -0.02398138970772        1.14605107930429
C           -0.91843637843395        2.26113923950411       -0.46178161336815
C           -2.06274304162585        1.40964475448478       -0.41382337113443
C           -3.23137590442949       -0.55818537013866        0.40142402675084
C            1.48011310527253        2.63119535758118       -0.51614762194654
C            1.32400188455232        3.99540584727963       -0.34613165967351
C           -1.07934285283827        3.65735625042170       -0.46058242602672
C           -0.00419743455329        4.49175901270764       -0.38379895568124
C           -3.23928770527602        1.75650413523123       -1.09882764831495
C           -4.32734183038654        0.93512034893827       -1.09734016970778
C           -4.34956116368829       -0.28001632967228       -0.36522553795133
H           -2.07932622693974        4.05801634734361       -0.43019789786270
H           -0.18668039107039        5.54965425258375       -0.33250070909692
H           -3.23816866674394        2.65264440209030       -1.69753684600909
H           -5.17957290169172        1.22722880800225       -1.68299627226625
C           -5.56148581871307       -1.20371158278106       -0.47222111883078
C           -3.05230641822966       -1.68387469079971        1.36406526661933
N            0.38664844608998        1.82909475958656       -0.56999022548508
N           -2.15240306914932        0.26314522245852        0.34426065917933
C            2.77079477492551        1.90668768220664       -0.69456752696625
C            2.48563377848944        4.95849488708990       -0.11281793322559
C            3.47246769562213        4.37842796283330        0.91757565435009
C            3.18905478677914        5.27289746394350       -1.44233173518972
C            1.98521212355020        6.29443741787223        0.45968637776756
H            4.22992787350683        3.75435891567534        0.45965263545591
H            3.98873228253045        5.18658281480084        1.42959409074087
H            2.94272379183277        3.78911515094400        1.66064647564758
H            4.02437402052908        5.94663069356451       -1.26569265687803
H            3.56835347833628        4.37973775038512       -1.92908377403837
H            2.49511302155217        5.75634417205915       -2.12690186892151
H            1.40375859480518        6.13325889964774        1.36389776724169
H            2.84095957281398        6.91672748033697        0.71169002589477
H            1.38882547289331        6.84969050649229       -0.25983953283983
C           -5.11280745491157       -2.63122213894449       -0.82382611680928
C           -6.38509102221233       -1.16991449000284        0.82486555860043
C           -6.50729964173044       -0.76447772180954       -1.60143391056883
H           -4.42011918234183       -2.60317038054840       -1.66142139281499
H           -4.62234552322304       -3.13734376977968       -0.00269836116581
H           -5.97674634412600       -3.22671428199108       -1.11122432740120
H           -5.98579656251289       -0.72070971138348       -2.55424757058515
H           -7.31013253610698       -1.49293637101262       -1.69218134240978
H           -6.96758140397149        0.19843475465450       -1.39360552154592
H           -5.81547140559813       -1.47771650770919        1.69495520149344
H           -6.74816018353768       -0.16025604359040        1.00587427775860
H           -7.24308208729030       -1.83184346784738        0.73083077424047
H            2.62935856249403        1.07944524410666       -1.38706882803661
H            3.54811862016688        2.55396938773535       -1.07539991280174
H            3.07785885805436        1.48450131804266        0.26153961389470
H           -2.39240416536037       -2.43246322852436        0.92343861910287
H           -2.55887199203018       -1.30913767192395        2.26047763820080
H           -3.98951929991537       -2.14349920576346        1.64307909479651
