75
 energy: -137.333701149523 gnorm: 0.000648027391 xtb: 6.5.1 (b24c23e)
Si          -0.33343954859112        0.47631287032652        1.31601465540161
O           -0.78482032987661        1.75418753647977        0.45134664820281
C           -0.86992541646229        3.12970864741058        0.72977294545295
C           -1.97724655580360        3.73229658922575       -0.09806177696659
H           -1.07502659637027        3.27409516615291        1.79856052886022
C           -2.36921931487990        3.14472394032014       -1.29211483448810
C           -2.58954416486742        4.90731939198486        0.31893967363738
C           -3.36790997935522        3.72299252890655       -2.05563662804708
H           -1.89180079812822        2.23082451602170       -1.60656070112823
C           -3.58197257455294        5.48752247669148       -0.45002554159333
H           -2.28965793703103        5.36477735242370        1.25146920128320
C           -3.97423837541671        4.89538728854774       -1.63894546464224
H           -3.67280329431694        3.25558935839387       -2.98054906453829
H           -4.05407358658250        6.40109423180128       -0.11870587344877
H           -4.75302031478392        5.34688683791610       -2.23634486000767
C            0.47941124323094        3.80844762437338        0.40821285966754
C            0.94709235082172        3.42641147155264       -0.90525497485894
H            1.21183671181974        3.50109322985082        1.15637599866378
H            0.35344525160916        4.89226046195732        0.45725434222427
C            1.31915615499326        3.06075126156968       -1.98220768385508
H            1.63040996151292        2.77408043826247       -2.94210590024562
Cl          -1.68733601353792       -0.78209977131189        2.27699431983249
Cl           0.25182126353325        1.45253880347419        3.10200252925982
O           -0.62563570073410       -0.38796695633138       -0.29757541575251
O            1.22552516093382       -0.25579394296671        1.35379460570110
C            0.27518223053340       -2.50920549727394       -0.21561265198313
C            1.58427441320960       -1.96374979077240       -0.27511600990092
C            3.18487826466689       -0.20802473808043        0.12694444181244
C           -2.09921603082217       -2.16130940411310       -0.29998654113985
C           -2.38135995443066       -3.48368328701020       -0.00578081848916
C            0.01662382414216       -3.89340409290709       -0.17870781250903
C           -1.25334938141967       -4.35105948396800       -0.00882954624059
C            2.58516830103847       -2.59703078360856       -1.04190857145911
C            3.71575523971183       -1.93544159812963       -1.39818643721702
C            4.00873351300088       -0.62774939221509       -0.89730081632560
H            0.84928454261452       -4.57740365401925       -0.17546696376385
H           -1.40955916988555       -5.40853498443371        0.10755565268765
H            2.37940014301235       -3.57723729370556       -1.43951113112154
H            4.42176432397422       -2.41312558519086       -2.05321093740858
C            5.10256247623690        0.18135609160618       -1.58276867873927
C            3.58892236908385        0.76660071356682        1.22000910210642
N           -0.82106641620708       -1.70002658687567       -0.29271423782923
N            1.96863189698384       -0.79251259378053        0.35001228844133
C           -3.07275296638619       -1.13550444440573       -0.85960927554916
C           -3.73401197908823       -4.04941799076635        0.40728428131333
C           -4.61411995926582       -2.97846686886362        1.06780321567327
C           -4.44770926372266       -4.69480350103836       -0.78854728012687
C           -3.49923965312012       -5.13698704735441        1.47330186042796
H           -5.39896028758363       -3.46206378526755        1.64375901664591
H           -4.02231209213402       -2.36737325835952        1.74549655054962
H           -5.10637465848351       -2.33614559507405        0.34878111326439
H           -3.82088831654267       -5.46266431426132       -1.23721182187015
H           -5.37116909153855       -5.15687994184282       -0.44980589689857
H           -4.69153321305563       -3.96113373713538       -1.54913220007680
H           -2.84427678560840       -4.76726278828668        2.25790390774887
H           -4.45200343120850       -5.40286503021896        1.92304740072647
H           -3.08047817536459       -6.04752161401552        1.05431434368418
F           -2.49776210519964       -0.42184450562665       -1.83784682402019
F           -3.60345111182930       -0.27639515338030        0.00161404386803
F           -4.10131109649163       -1.73773261879585       -1.48787991100948
F            3.30656571568466        0.27730925712518        2.43070648836418
F            3.04621727367789        1.97964036489553        1.12458983749814
F            4.91965474256427        0.94469781451160        1.26607928789733
C            4.85792572485208        1.69426498389881       -1.45950394965686
C            6.49387965540767       -0.19765792481035       -1.05824016559643
C            5.05379096324476       -0.14807901771337       -3.08896349963796
H            3.79952991169718        1.92828751128981       -1.55788611802673
H            5.21831397963979        2.10364148956543       -0.52431427450189
H            5.39241482696181        2.21217522751802       -2.25200743957552
H            6.61102900807699        0.06906173156693       -0.01370816060976
H            6.66113317238604       -1.26745693896633       -1.16203369418266
H            7.25154043388478        0.32810636810901       -1.63329248008844
H            4.04047346947471       -0.05601752592632       -3.47216089079434
H            5.68747858871652        0.55222495417376       -3.62665227222764
H            5.42365353777547       -1.14520049267204       -3.30749711275791
