75
 energy: -137.333702030925 gnorm: 0.000683625633 xtb: 6.5.1 (b24c23e)
Si           0.33304097755929        0.47602959713944        1.31502004557213
O            0.78603993600469        1.75308152749468        0.45034143871060
C            0.86737527885794        3.12924560921413        0.72592770147168
C            1.97804938047673        3.73184836279868       -0.09745098931899
H            1.06698895754977        3.27642231791005        1.79533621847208
C            2.37643885253138        3.14330269829422       -1.28891191143869
C            2.58740997888836        4.90763609683332        0.32141045011602
C            3.37880452761519        3.72130010217739       -2.04768661438293
H            1.90103820052159        2.22891346956338       -1.60496193045076
C            3.58366317937420        5.48758913218288       -0.44288267915555
H            2.28257731707403        5.36616050799089        1.25168638387070
C            3.98246215714861        4.89441176228414       -1.62896093815904
H            3.68880300562539        3.25325708617851       -2.97052638087029
H            4.05345215144502        6.40171594095846       -0.10980958431763
H            4.76429998102217        5.34548129710637       -2.22262485917023
C           -0.48116866421895        3.80521015289189        0.39632575176393
C           -0.94672086005055        3.41441830631506       -0.91487316566369
H           -1.21559636321130        3.50325767023817        1.14483619893801
H           -0.35527219992979        4.88926164606785        0.43831030013875
C           -1.31507231744505        3.04211907570772       -1.99086375947002
H           -1.62690215476559        2.74887038129459       -2.94883001747046
Cl           1.68602734537959       -0.78421134333200        2.27499933077124
Cl          -0.25133666882378        1.45433953885512        3.10047812024072
O           -1.22628933967293       -0.25584673325227        1.35506757804201
O            0.62293040299549       -0.38830102628155       -0.29791219899382
C           -1.58635065367592       -1.96463943971603       -0.27264429159462
C           -0.27715341488475       -2.50989734769488       -0.21450573727316
C            2.09718285677568       -2.16074624015386       -0.30196803619716
C           -3.18578082303655       -0.20779848356408        0.12908507540427
C           -4.01031159696697       -0.62735323764527       -0.89479371496384
C           -2.58857562045976       -2.59817017270258       -1.03788160477970
C           -3.71878532122875       -1.93604602834051       -1.39416426909410
C           -0.01742115696721       -3.89395824992420       -0.17727130772519
C            1.25316095389760       -4.35070904878301       -0.00906835024932
C            2.38078831978715       -3.48277133929966       -0.00783754856007
H           -2.38379907459518       -3.57920211013374       -1.43399615605314
H           -4.42599101645983       -2.41393971658039       -2.04779101113869
H           -0.84962465967877       -4.57852273853119       -0.17239566245982
H            1.40982462933375       -5.40811709708108        0.10757086161558
C            3.73430166970172       -4.04691469121805        0.40470689472435
C            3.06891986386176       -1.13374884608610       -0.86283949824741
N           -1.96999886508933       -0.79287858490479        0.35187590923493
N            0.81882361388767       -1.70043287086927       -0.29325924349958
C           -3.58912958402996        0.76730146402339        1.22181716787490
C           -5.10324657784504        0.18249937350251       -1.58069189373485
C           -6.49507075351317       -0.19628934436169       -1.05737920416113
C           -4.85890672953462        1.69536254949307       -1.45654474576971
C           -5.05268172031603       -0.14603577179170       -3.08693443715715
H           -7.25190751658331        0.33429558254138       -1.62904266285975
H           -6.66486163464860       -1.26511450399920       -1.16674381985110
H           -6.61077302699713        0.06523332804236       -0.01135382806089
H           -3.80072206681533        1.92994265892622       -1.55618173089654
H           -5.39463391215349        2.21334083423933       -2.24823495015525
H           -5.21840953342353        2.10420767934314       -0.52076112881435
H           -5.42002197113536       -1.14387691299423       -3.30651734301833
H           -5.68740755306911        0.55325099163561       -3.62475630014376
H           -4.03920278904811       -0.05155855721999       -3.46918549420625
F           -3.04625651515762        1.98026931399501        1.12564479421371
F           -3.30671407861131        0.27845403655352        2.43272784005682
F           -4.92001524201566        0.94578050679874        1.26824715910201
F            2.49234110626418       -0.42294248252881       -1.84214910345636
F            4.09901887078432       -1.73433243337842       -1.48988399175992
F            3.59716570463553       -0.27234568902502       -0.00246302248416
C            4.44894695005721       -4.69152337658199       -0.79094753104992
C            4.61348257138837       -2.97486691019803        1.06483306779024
C            3.50063169732704       -5.13454653884274        1.47095906364305
H            3.82371554010420       -5.46088461474882       -1.23922369610741
H            4.69128144313523       -3.95768971494200       -1.55189753379060
H            5.37339472254682       -5.15152821267106       -0.45204040899135
H            5.10531487459452       -2.33253122495389        0.34554100615448
H            4.02127333676551       -2.36392736835022        1.74230244273401
H            5.39874875404695       -3.45763268211813        1.64094144734298
H            3.08459242888714       -6.04616997449666        1.05154723830718
H            4.45329509081592       -5.39799928108641        1.92236708626257
H            2.84360634736589       -4.76592265820748        2.25439371460127
