75
 energy: -137.254018513792 gnorm: 0.000683848439 xtb: 6.5.1 (b24c23e)
Si           0.22721743266763        0.78462602064438        1.10412131118354
O           -1.59514396586036        2.12517300738995        0.94602660312292
C           -1.93183222475927        2.62662472009303       -0.10704079154491
C           -3.22116614087865        3.26260568961344       -0.32295685211599
H           -1.25336959976798        2.60498264211326       -0.97298442408962
C           -4.17404043590642        3.27204088409829        0.70012994914697
C           -3.51891829888500        3.84966486955543       -1.55477139294126
C           -5.40227818078870        3.86604803847377        0.49189872093216
H           -3.92560372213218        2.79929036332278        1.63792986266680
C           -4.74950992179957        4.44394978661231       -1.75337102877535
H           -2.78135434855947        3.83184300657071       -2.34349676771456
C           -5.68907042385397        4.45398470280509       -0.73187512195667
H           -6.14046493675681        3.87249188845261        1.27963151924204
H           -4.98290404584615        4.90049260621533       -2.70378650576862
H           -6.65025759551121        4.91978459718869       -0.89276492414293
C            1.75756978116195        1.45223872567094       -2.48913940192457
C            1.44653463905134        1.78767508586530       -1.27454707247029
H            2.69759014810412        0.98288367114947       -2.73220271659302
H            1.08732650803063        1.63653379857499       -3.31275362102514
C            1.09728671865015        2.05219738279962       -0.05838154054502
H            1.33081685889096        3.01751520730522        0.36705999482959
Cl          -1.21203908192895       -0.43513498618610        2.12198114900979
Cl           0.71666795145876        1.83849207427860        2.85765566299089
O           -0.35533417747963        0.01699743527642       -0.50757709928887
O            1.45753681907893       -0.46930852066879        1.24312145707144
C            0.38919797327610       -2.16804781722569       -0.65270049914604
C            1.74779594624949       -1.73751574596400       -0.68207242842783
C            3.51354315953437       -0.31657429763601        0.14230029603830
C           -1.94982872763709       -1.67056803691873       -0.46330661805252
C           -2.28413494283067       -3.00043641704818       -0.26954127344159
C            0.03988622978491       -3.52313577681980       -0.76656149823480
C           -1.23607164737333       -3.92882473096992       -0.51638224071301
C            2.67789890777350       -2.28294695557697       -1.57887054791558
C            3.90698776716765       -1.71891207436575       -1.73130812838165
C            4.34174256295855       -0.62356077787233       -0.92281208616826
H            0.82213938215344       -4.24523276758363       -0.93601790021452
H           -1.45773509127621       -4.98108949992294       -0.51579185376972
H            2.36382135162619       -3.09229004518174       -2.21822153469043
H            4.57260008685972       -2.11484765455526       -2.47623512958673
C            5.61216668327401        0.10874515168555       -1.34959892295588
C            3.94514478066379        0.43417141932719        1.39261747812232
N           -0.64899072244380       -1.27715156295742       -0.56331444125381
N            2.24372623271396       -0.81104407398248        0.21244586285067
C           -2.94452938822439       -0.59060079736878       -0.83796364377337
C           -3.60818842182372       -3.53985267150506        0.25496988050992
C           -4.41334690111576       -2.48048599682410        1.01758227708306
C           -4.44126103359122       -4.13940556745744       -0.88581244633845
C           -3.28666682589785       -4.65125177555239        1.27361142415639
H           -5.15062037405510       -2.97417267219702        1.64599263388896
H           -3.75867159063055       -1.89503736662898        1.65907806073197
H           -4.96048522597360       -1.81694546588922        0.35870721328018
H           -3.88114227296941       -4.91285147776440       -1.40662192794875
H           -5.34611936463680       -4.58312248264683       -0.47873377207691
H           -4.72558444466015       -3.37715224869685       -1.60445789780184
H           -2.57123454705009       -4.29171871866612        2.00844712829624
H           -4.19855380417003       -4.93264325712712        1.79354384383023
H           -2.89472844974497       -5.54877177759049        0.80490767887405
F           -2.43133394438014        0.27508056998820       -1.72913451013777
F           -3.47219271641562        0.14184262978653        0.13789597810128
F           -3.98610815383416       -1.12856120396056       -1.50842612740679
F            3.44570353959662       -0.09311999913779        2.50932411961535
F            3.65531398685131        1.73620846695562        1.38199815301621
F            5.27572097567867        0.34355502028725        1.58545470168517
C            5.56835706415454        1.59754962399816       -0.97147336079157
C            6.86213480122587       -0.57424018774737       -0.77514036504684
C            5.72943707886433        0.05545936779525       -2.88719453110554
H            4.58478036745795        2.01650095679611       -1.17300144509185
H            5.81910704799831        1.77750560268917        0.06572715278508
H            6.29653321647554        2.14327913172875       -1.56675064086623
H            6.89388654312425       -0.51540752229921        0.30639377071303
H            6.88500824859257       -1.62304511808169       -1.06350625960700
H            7.75045371162453       -0.08768963047957       -1.16983891214180
H            4.79826722612199        0.34794034224477       -3.36588937105238
H            6.50360490403795        0.74803945385571       -3.20711663926628
H            6.01664805851205       -0.92853526214694       -3.24650466946654
