75
 energy: -137.336132746580 gnorm: 0.000725238100 xtb: 6.5.1 (b24c23e)
Si           0.15716293659118        0.85180931032755        0.65441401798647
O           -0.13434576594179        1.85200967870821       -0.57227885048654
C           -0.46147642130606        3.22708215926028       -0.54268250737102
C            0.69769105527649        4.05031160530802       -0.04376791638454
H           -1.32524764281443        3.37090036982324        0.11630690082477
C            1.99066340623911        3.73472721141315       -0.43752431553680
C            0.48721419431003        5.12434353556074        0.80938293745659
C            3.06225862139693        4.47635469836702        0.02558645585096
H            2.15577221856223        2.89216260172031       -1.09045325446104
C            1.55899669916786        5.87113827347737        1.26450017209502
H           -0.51651657710315        5.36383581786375        1.12781891948362
C            2.84801959783361        5.54750915573233        0.87569718880977
H            4.06495315067671        4.21264600325099       -0.27649248676847
H            1.38828795776704        6.70138916439437        1.93394042320469
H            3.68451123497820        6.12567550974767        1.24040576786183
C           -0.83180258633421        3.63572286294014       -1.97897302233493
C           -2.07726775131671        3.03167842334601       -2.39917811169083
H           -0.91975970295488        4.72456166559805       -2.02366605768551
H           -0.02803032820914        3.31429497745626       -2.64532867511246
C           -3.11371410314011        2.53268280729114       -2.72877338693484
H           -4.02152520782802        2.10287909839299       -3.03063622049053
Cl           2.05666126409084        0.48904457422914        1.44244072129489
Cl          -0.41546862259120        2.05839077444978        2.29599443366295
O           -1.03718672770459       -0.25596856257199        1.21514597845439
O            0.50160359701360       -0.36152755086534       -0.72416643908254
C           -0.99315807564590       -2.41663038185619        0.26715437991047
C            0.41535610202340       -2.49912391793663        0.16172076265678
C            2.47456562105129       -1.54591802946815       -0.61948815193755
C           -3.00148232740359       -1.07670879432616        0.27401873090182
C           -3.75397085053845       -2.10017623469381       -0.27196886301540
C           -1.82077693498287       -3.54584452551341        0.08610011838676
C           -3.13602126853418       -3.38987868606500       -0.20619821347859
C            1.15618411957373       -3.63449634361601        0.55002886719571
C            2.51563791763444       -3.61606200574512        0.52148144372913
C            3.24864640725527       -2.53130369055017       -0.03315094578725
H           -1.37228919883418       -4.52542075331305        0.08493337021362
H           -3.73719751586518       -4.26086762704384       -0.39315012210264
H            0.63136933954789       -4.47654117333855        0.96975319223712
H            3.05177376167138       -4.46412484940176        0.90856266695058
C            4.76042515514117       -2.50449754000890        0.15222526978821
C            2.93033739133833       -0.58317248871700       -1.70287920695646
N           -1.66675132894989       -1.23258847614829        0.50692424837774
N            1.13111443083838       -1.48835444430811       -0.41494521077186
C           -3.51454244828328        0.23017572300988        0.86109751368755
C           -5.09164493595862       -1.98584808166424       -0.99649802827424
C           -6.28165552610603       -2.06000596837749       -0.02922230289508
C           -5.12068635683280       -0.71249043470611       -1.85617624190776
C           -5.24128822183243       -3.15876834808800       -1.98570795225179
H           -7.20489525424324       -2.10683879125491       -0.60128524941146
H           -6.20909665602825       -2.95818142347043        0.58084834569544
H           -6.33612839563796       -1.20166526019183        0.62829304211536
H           -4.26915395016360       -0.70986309046891       -2.53435030878316
H           -6.03280283286044       -0.70127898237988       -2.44849972636240
H           -5.10093938483502        0.20084400797040       -1.27778834562385
H           -5.47486138844398       -4.09307525690166       -1.48235678871713
H           -6.06698017923928       -2.94408826388708       -2.65937008910159
H           -4.34259025193318       -3.28809704677930       -2.58433665606419
F           -3.02022061348832        1.31902994986661        0.27256379966114
F           -3.23287775062814        0.28539293276442        2.16862546623373
F           -4.84625478437160        0.37247276596576        0.82214420591567
F            1.98715218494802       -0.44176534005086       -2.64411282478350
F            3.97274242153996       -1.09307478760811       -2.38852248624396
F            3.28977877400399        0.63747612695765       -1.32216043142399
C            5.45782278642801       -3.34728773054705       -0.92435283579648
C            5.30678128057517       -1.07000466882911        0.17088348510826
C            5.08547841135138       -3.11066737728117        1.53113287037173
H            5.07877471086431       -4.36704916481088       -0.91636346682088
H            5.30446917827820       -2.93063979282939       -1.91412433538027
H            6.52585404237762       -3.37394560193656       -0.72514290756236
H            5.43014749943398       -0.65521354860101       -0.82154880152606
H            4.65295111991866       -0.42359143869434        0.75185555433705
H            6.28959736077777       -1.06544678046450        0.63532282604140
H            4.95005419506670       -4.18808804293867        1.55540788418322
H            6.12802955599708       -2.91558134559719        1.76721777843587
H            4.47069516733017       -2.65318814129978        2.30181399818397
