75
 energy: -137.335296831073 gnorm: 0.000460601805 xtb: 6.5.1 (b24c23e)
Si          -0.31007645468640        0.86139719720720        1.46929459164549
O            0.23062778906795        2.22361960512167        0.81840699885546
C            0.11931864305770        2.83598333002139       -0.45355199012803
C            1.36405737370623        2.56602194081954       -1.25629127736880
H           -0.74472198101098        2.42597564415111       -0.97629541682759
C            2.61149332281700        2.90965093338944       -0.74986475302593
C            1.27644741872802        1.96759872309449       -2.50573671579414
C            3.75284386039578        2.68268210098050       -1.49757700892993
H            2.68537170691310        3.33959547270085        0.23670057207857
C            2.42047632415515        1.73470311949738       -3.25001611461315
H            0.30827858797774        1.68489525165410       -2.89173031975178
C            3.65918177168782        2.10091996336909       -2.75207927024439
H            4.71855315708386        2.95865204887055       -1.10048802581462
H            2.34386105474365        1.27028494283098       -4.22278791208200
H            4.55105739120209        1.92706195532451       -3.33655071086880
C           -0.09767724416458        4.34180966494615       -0.22916619857025
C           -1.41039234823625        4.57410020978334        0.33475316147320
H           -0.00441981906643        4.86143045362580       -1.18656555756684
H            0.66552872056249        4.71320451403627        0.45774042455792
C           -2.50586120459243        4.70270378241772        0.79733363459575
H           -3.46221274608754        4.83622910199392        1.20551298498192
Cl           0.34841701474733        1.34759695953862        3.36597014965351
Cl          -2.26284832269587        0.46214287007879        2.00962023888256
O           -0.80144431266121        0.24691388151443       -0.38362521704552
O            0.61955460866887       -0.57088195664854        1.52438457028762
C           -0.99428696391618       -2.05072945211899       -0.32960402098518
C            0.41127084982067       -2.18498882577446       -0.19820849765150
C            2.56243128612120       -1.32621153346632        0.48406655595184
C           -2.90488735356742       -0.64682944119690       -0.66139069101498
C           -3.80181803074418       -1.68601294239767       -0.47098873513795
C           -1.86455788585936       -3.15641465639950       -0.40322336257282
C           -3.21311774780636       -2.97564660421873       -0.39828589056623
C            1.10702760309386       -3.22973159173329       -0.83890793944303
C            2.45387830873480       -3.17295548255368       -0.99319401951885
C            3.23513948680405       -2.11411806412659       -0.42757206520462
H           -1.44647260797003       -4.14793139474294       -0.35038461882531
H           -3.85080718837742       -3.84063505531292       -0.35945831387645
H            0.53826103952428       -4.02284680072904       -1.29569097187298
H            2.95311849823754       -3.95337384220341       -1.53799292898968
C            4.66378898340958       -1.94339878569669       -0.93278221853845
C            3.20796213095710       -0.55756695476195        1.62549747354787
N           -1.57025003999700       -0.82036960286743       -0.47326129393261
N            1.19540161150827       -1.31108620127973        0.53554142906206
C           -3.22659151859254        0.69269851943176       -1.29561543899096
C           -5.30012335193571       -1.55088499736466       -0.23354419426366
C           -5.65644830551351       -0.18192680617180        0.36388399789316
C           -6.09017872721199       -1.81649365194110       -1.52235492656346
C           -5.71582564224519       -2.60285382918451        0.81297411581662
H           -6.63531920496303       -0.23822120739731        0.83325421195630
H           -4.93060889053844        0.10058444713468        1.12319027383012
H           -5.71381950720499        0.60058133426285       -0.38226348377423
H           -5.84289618012680       -2.79608303110593       -1.92614138033099
H           -7.15446942124546       -1.79164037211647       -1.30376731616469
H           -5.87938687688384       -1.06887231689700       -2.27940757731351
H           -5.06117818978485       -2.55792912025953        1.67941018793456
H           -6.73030780308559       -2.39404869155974        1.14157425605718
H           -5.71243660257743       -3.61248483177520        0.41236885963076
F           -2.26787612494669        1.03231201692927       -2.17730156014156
F           -3.39401839274335        1.72963831306918       -0.48331485043967
F           -4.32793375313935        0.62103809711189       -2.06395712586427
F            2.63484662318635       -0.85568815713095        2.79530157393702
F            3.19312671633331        0.76703527528143        1.47135768870503
F            4.48834581862277       -0.90861904468596        1.82149806585756
C            5.15714033581297       -0.49163946778332       -0.81821838430829
C            5.61540807179773       -2.90586966374618       -0.20956249876877
C            4.67837761203545       -2.28350449431318       -2.43717559379805
H            4.33778885853110        0.20797189344679       -0.96437288812256
H            5.63449667898200       -0.28592953348497        0.13159585581658
H            5.89833811028576       -0.29816716796011       -1.58937554483787
H            5.66755628336171       -2.68389426728871        0.85116909159054
H            5.28396022984151       -3.93468139284534       -0.33114764610897
H            6.61318407490871       -2.81198858896015       -0.62996890225032
H            3.91821797824057       -1.71167881560149       -2.96427115609715
H            5.64974244984009       -2.02415312673621       -2.84988959453818
H            4.52416835866712       -3.34026379909780       -2.63111284515555
