75
 energy: -137.338544146336 gnorm: 0.000822928565 xtb: 6.5.1 (b24c23e)
Si          -0.30954821651937        0.64925536111889        1.36119609521395
O           -0.25961200552631        2.05262363706860        0.58146375008928
C           -0.53902534181183        2.50992254461839       -0.72054054337270
C           -1.18691822471039        3.87074730960515       -0.64142481636077
H           -1.20739934691943        1.80841067393199       -1.22423144022069
C           -0.95678851654242        4.70467421442927        0.44332271117727
C           -1.99957880459787        4.30720097167011       -1.68016013794963
C           -1.53730342452607        5.96026695693749        0.48928564436683
H           -0.33546247786855        4.35509460794914        1.25305400911465
C           -2.57296832020862        5.56505707285948       -1.63497294893593
H           -2.18533022317269        3.65554273181443       -2.52258965028489
C           -2.34263790904134        6.39423326375049       -0.54960638471873
H           -1.35870413050326        6.60149220337381        1.33972451651462
H           -3.20476556219384        5.89750629534290       -2.44588352390483
H           -2.79376547242857        7.37508147995304       -0.51356403487506
C            0.77862322959444        2.60556296667386       -1.52040101647566
C            1.21133264213724        1.31037782514941       -1.99079628705541
H            0.62496654939436        3.26437800345668       -2.37891696096030
H            1.53985149335304        3.03932582859249       -0.86800111455773
C            1.54106850005236        0.23016038112708       -2.38863452601777
H            1.81187291711328       -0.71983340376957       -2.74254878171908
Cl          -1.99436532325978       -0.26309385125925        2.18213763407885
Cl           0.29389125660601        1.52279307106606        3.14688669650109
O           -0.71443176416399       -0.23439450401217       -0.29691803565896
O            1.05150567845652       -0.38840869342890        1.47062075672679
C           -0.22019556352504       -2.48338255058807       -0.04470540001939
C            1.17183046222934       -2.21875316017553       -0.02329521595482
C            3.03120322197828       -0.70734921114173        0.29218479331540
C           -2.47277937195469       -1.71372077889888       -0.34329468271623
C           -3.02730518233425       -2.92835800957431        0.01809037376490
C           -0.74900785492146       -3.78603243468072        0.07099457600607
C           -2.09040044022812       -3.98589238314060        0.17156818808423
C            2.09647509786948       -3.13254330233502       -0.57139712060731
C            3.36750021641310       -2.74958881021713       -0.85142673102765
C            3.85186336221194       -1.43720813378905       -0.54576078508487
H           -0.06817951300872       -4.61212813080636        0.19191020585171
H           -2.45175833635690       -4.98234687045466        0.35251723187489
H            1.74988200077578       -4.11216848038311       -0.85665662151982
H            4.03245390058246       -3.45413928410788       -1.31622124139434
C            5.13918440513774       -0.97872486925417       -1.22770207612757
C            3.44558866914172        0.45207963586467        1.18564530706513
N           -1.13376511246713       -1.48914968132566       -0.25378421001176
N            1.73207654712384       -1.07235534023869        0.51115446339364
C           -3.18772058022439       -0.58262175215585       -1.05751197536749
C           -4.48836864991491       -3.18880161106154        0.36003862198022
C           -5.18668049769596       -1.91669252512258        0.86276392213141
C           -5.23320316745261       -3.79622329000767       -0.83653885462892
C           -4.53684160110517       -4.19777322858416        1.52363116245695
H           -6.08251298329389       -2.19164835142929        1.41362029467824
H           -4.53156795466256       -1.36511507907746        1.53330931522991
H           -5.50452806804045       -1.26449296333053        0.05923171617416
H           -4.73789483665598       -4.70493084351942       -1.17240730687867
H           -6.24851113028338       -4.04561801329102       -0.53984492283291
H           -5.28103361814662       -3.10212594960224       -1.66878005083613
H           -3.87660536348109       -3.88329939905723        2.32770067063630
H           -5.55035564182948       -4.24081181242472        1.91306521987650
H           -4.27214561574498       -5.20451983327055        1.21333214535968
F           -2.41682437903832       -0.09394498830029       -2.04597612643700
F           -3.57497997012504        0.45328700321140       -0.32015090785207
F           -4.27605977956318       -1.02072366185060       -1.71353513201446
F            3.17585452040930        0.18462354272347        2.46705436961825
F            2.86723070700456        1.60857077320372        0.85470831903711
F            4.76371727793163        0.69201306059734        1.19582545060754
C            5.04821636622370        0.50290943255853       -1.63113767290878
C            6.37158637256998       -1.25989426806407       -0.35617710595883
C            5.32704827883798       -1.76375963174550       -2.54166915123292
H            4.07589432334627        0.71474807144352       -2.07256264219515
H            5.20905587865291        1.18115270891896       -0.80437974886189
H            5.81390358798730        0.72198553882793       -2.37126013268677
H            6.36744670482071       -0.68188830115026        0.55963128687749
H            6.41308297164543       -2.31577898288357       -0.09662981433121
H            7.26968523557942       -1.00627506059788       -0.91342328800573
H            4.42171521326353       -1.74915535213253       -3.14318052464152
H            6.12064024635617       -1.29705713050523       -3.11928019339837
H            5.62627744125026       -2.79384125509608       -2.36918860920436
