75
 energy: -137.335489187397 gnorm: 0.000971622134 xtb: 6.5.1 (b24c23e)
Si          -0.20922396215573        0.29167692722938        1.67730699880764
O            0.70051441957618        1.58127159327667        1.40645181806900
C            0.74439397855692        2.61499213403373        0.44060580441949
C            2.09944801739895        2.62648554877666       -0.21665918225596
H           -0.02899849857168        2.44056716753800       -0.30834389882562
C            3.25086590684632        2.58162210561372        0.55958641142521
C            2.21060956027220        2.70049389538244       -1.59863358260014
C            4.49677886877461        2.62500822775322       -0.03998680377672
H            3.16304542772284        2.49247933602091        1.63099560048571
C            3.45832122655933        2.74645259782682       -2.19697185828685
H            1.31519912198010        2.72356029677008       -2.20320577967192
C            4.60313520928131        2.71468548558775       -1.41848435884671
H            5.38724756100382        2.58751618320045        0.56943455728054
H            3.53702646382336        2.80712156842076       -3.27294129032175
H            5.57628591291778        2.75294044788462       -1.88581033904454
C            0.47843371543077        3.95106115928007        1.15731873212130
C           -0.85307673508582        3.96079939334165        1.72397502765629
H            0.58678054478155        4.76680073188831        0.43790942332878
H            1.21481873719783        4.07631077257023        1.95489734608344
C           -1.95234635361446        3.91325893313680        2.19316014558447
H           -2.91694015932024        3.87767034724594        2.60215327674628
Cl           0.40478469426178        0.05984130940990        3.63188948566054
Cl          -2.22669150954561        0.16672083319978        2.04573329460293
O           -0.73348459660564        0.37932850581377       -0.32302047517968
O            0.38495437272032       -1.25202257472013        1.25409617614378
C           -1.26365104703804       -1.75011954707650       -1.00575078901375
C            0.10469236814244       -2.11585436614840       -0.92510295742542
C            2.29950421013878       -1.81132510185575        0.03110204399052
C           -2.93787640070037       -0.04925874406246       -0.84181571580815
C           -3.97727994193481       -0.95509066640474       -1.00675815217466
C           -2.27002915385892       -2.62918389534073       -1.44828409810402
C           -3.57945478181125       -2.26471750599457       -1.37803118270343
C            0.70852823058491       -2.94140759362019       -1.89286179892715
C            2.06012900314307       -2.98434853656594       -2.01446735329112
C            2.92080682105237       -2.28647009386658       -1.10625827139489
H           -1.99200611558754       -3.62844718769887       -1.73975472131919
H           -4.33337470743405       -2.98756302900270       -1.63449192414878
H            0.07692081457988       -3.44916478152737       -2.60342112147313
H            2.50079235427342       -3.56850336856164       -2.80179526998910
C            4.37107481634380       -2.07033049215387       -1.52230052227088
C            2.98519256962233       -1.59341261371354        1.36866627637413
N           -1.65159130892077       -0.46852211337463       -0.72676745070150
N            0.94198339255620       -1.66459576007015        0.08175466100088
C           -3.06743565689384        1.45375705365815       -1.00827401020344
C           -5.45488993248116       -0.69741538531725       -0.74235226335950
C           -5.67666383869415        0.47834226897736        0.21830091222996
C           -6.21403926265841       -0.47832365885672       -2.05815686379882
C           -6.03367891803584       -1.94369238221035       -0.04368720059186
H           -6.67768106902581        0.41499376703685        0.63776122684353
H           -4.96207598984512        0.44093776702853        1.03751281750177
H           -5.60691400343729        1.44002697201580       -0.27485349183966
H           -6.07877038200231       -1.32714158757944       -2.72504097816533
H           -7.27496467015069       -0.36877882137595       -1.84928870330239
H           -5.87042515795306        0.41678897190073       -2.56625158698595
H           -5.41051986713116       -2.23041845853431        0.79957462461977
H           -7.02758028853410       -1.71272361546038        0.33013593088271
H           -6.13463221974774       -2.79012101607958       -0.71665733385250
F           -2.00292049040729        1.96687853535379       -1.64549022233600
F           -3.24991289779285        2.18088076968234        0.08764780959838
F           -4.08828051001402        1.74721920144477       -1.83914275742827
F            2.31182762491688       -2.17879578349184        2.36314709962420
F            3.18432096056311       -0.31534529101459        1.69098521404480
F            4.18604407187686       -2.19500216658910        1.42343488091182
C            4.96138552338777       -0.79699183915392       -0.89823090779465
C            5.23659246894687       -3.29600801476151       -1.20239636618329
C            4.39618242140175       -1.84682512313207       -3.04824472568044
H            4.23290235143418        0.01047198333611       -0.91513073943965
H            5.30490523902323       -0.94002804422216        0.11808546014945
H            5.82448331351708       -0.47906274544941       -1.47774704694982
H            5.28710709061990       -3.47791978510630       -0.13449723803109
H            4.83292836540585       -4.18322192118210       -1.68501089774108
H            6.24588518417375       -3.13112278194072       -1.57043934421619
H            3.68356789232597       -1.07687320323065       -3.33414440760795
H            5.38932341824653       -1.51777297815965       -3.34202279317460
H            4.18181318162816       -2.75250021711030       -3.60689627996986
