75
 energy: -137.336122313157 gnorm: 0.000561922590 xtb: 6.5.1 (b24c23e)
Si          -0.15535381481499        0.85044827166601        0.65570445791617
O            0.13850486911987        1.85127189965017       -0.57014424496028
C            0.46456469279973        3.22653442127415       -0.53934408781166
C           -0.69795071421141        4.04853232955296       -0.04596482704615
H            1.32494142643076        3.37125332731946        0.12387658148010
C           -1.98844471734848        3.73160412634623       -0.44671879807455
C           -0.49334299582934        5.12242757892847        0.80874671366616
C           -3.06349081967032        4.47146040247435        0.01118137916354
H           -2.14890530192370        2.88930925804335       -1.10110960835161
C           -1.56856760053527        5.86747451739656        1.25871560684950
H            0.50833569176224        5.36331579018329        1.13255143860246
C           -2.85515252865272        5.54228951530708        0.86317947127801
H           -4.06417938974843        4.20659819376289       -0.29647647463837
H           -1.40245488348157        6.69763274809508        1.92942829239206
H           -3.69434980873666        6.11893892909401        1.22406175256692
C            0.84109892131382        3.63560651273867       -1.97384438379114
C            2.09229971958888        3.03869653827592       -2.38658158103329
H            0.92346401798670        4.72483836120249       -2.01892746460138
H            0.04280102820164        3.30949437203053       -2.64441329639542
C            3.13369923795232        2.54671429128569       -2.71015628067302
H            4.04370877974641        2.11995119017787       -3.00938631517986
Cl          -2.05482660304519        0.48825960491256        1.44369602513721
Cl           0.41397036786618        2.05414438679759        2.30080417574510
O           -0.50176221735004       -0.36131054827151       -0.72218286548357
O            1.03754406042171       -0.25822736937586        1.21665496595404
C           -0.41564371269383       -2.50008677222573        0.16166698015489
C            0.99290323815031       -2.41814771771343        0.26664963772707
C            3.00118142895821       -1.07834652117738        0.27445041572824
C           -2.47519034350963       -1.54523822689959       -0.61692979557507
C           -3.24909979310037       -2.53117120554653       -0.03137908300252
C           -1.15653280144389       -3.63579975437499        0.54883463527355
C           -2.51598768558774       -3.61691578087526        0.52129491440289
C            1.82049727255110       -3.54720274796370        0.08359899322829
C            3.13538163606732       -3.39063055819451       -0.20982454138140
C            3.75299247699539       -2.10071658140898       -0.27450027049027
H           -0.63161850482215       -4.47860227629227        0.96692230072743
H           -3.05212129588780       -4.46533645469200        0.90758059971497
H            1.37231581080336       -4.52693493527780        0.08172906287498
H            3.73669924983237       -4.26116847252220       -0.39835625867530
C            5.08941578744670       -1.98444704943609       -1.00080532846682
C            3.51536827230661        0.22648885039162        0.86483756640968
N           -1.13150937214126       -1.48838650217211       -0.41342742971429
N            1.66681797910103       -1.23484122545269        0.50829426081380
C           -2.93169709214256       -0.58156584493147       -1.69933099425583
C           -4.76074305593480       -2.50462225958624        0.15487943509255
C           -5.30749049296012       -1.07030009745486        0.17460999227540
C           -5.45868869565343       -3.34681131411339       -0.92183170528827
C           -5.08464125200762       -3.11181329791054        1.53363953698498
H           -6.29009235776342       -1.06638819400935        0.63950219628940
H           -4.65366515693995       -0.42390498121179        0.75558555143692
H           -5.43150131903908       -0.65507067122831       -0.81757010843589
H           -5.07959560258614       -4.36655603396687       -0.91482212771687
H           -6.52659047618614       -3.37364472292576       -0.72192293130981
H           -5.30601380165211       -2.92943543231713       -1.91141271026666
H           -4.46884413975392       -2.65533576828277        2.30410176589384
H           -6.12684298581211       -2.91641943072503        1.77097691917311
H           -4.94970774507407       -4.18933023414514        1.55680140682799
F           -1.98891449271855       -0.43873071483158       -2.64067718076573
F           -3.29175609155020        0.63841870628490       -1.31734813780322
F           -3.97399298129966       -1.09150234707545       -2.38504010798808
F            3.23296917130530        0.27845417736455        2.17251544873079
F            3.02313230981890        1.31762372031234        0.27903111167041
F            4.84730760776625        0.36676675501520        0.82707362460529
C            5.11820553004946       -0.70773228178161       -1.85526158798229
C            6.28141222630140       -2.06341553782735       -0.03647381877957
C            5.23682064803307       -3.15343327711395       -1.99490122755548
H            4.26617173373669       -0.70211863192257       -2.53277323712490
H            5.09886844286857        0.20312839486160       -1.27295604942099
H            6.02988348568529       -0.69427403093498       -2.44820316916430
H            6.33738636153522       -1.20810540771752        0.62452169042209
H            6.20931560623846       -2.96382723384393        0.57002751938246
H            7.20379685947350       -2.10834333113004       -0.60994771057348
H            4.33661905367117       -3.27962017568956       -2.59168573384682
H            6.06113425676511       -2.93696164411684       -2.66968800770299
H            5.47048438496053       -4.08985257410856       -1.49583394526559
