75
 energy: -137.254025737888 gnorm: 0.000609355197 xtb: 6.5.1 (b24c23e)
Si          -0.22772046663134        0.78534475063453        1.11036787294989
O            1.59565454167771        2.12644798770015        0.95191440013984
C            1.92984469397086        2.62773745959200       -0.10213741257889
C            3.21919370121796        3.26249551561297       -0.32170492370688
H            1.24923385942814        2.60750241417120       -0.96616566154776
C            4.17474095386612        3.27160969827395        0.69882447499654
C            3.51463169319062        3.84697743492834       -1.55517772938853
C            5.40401282988677        3.86191679236460        0.48602864086757
H            3.92765593750022        2.80138341510728        1.63809078632032
C            4.74623724960418        4.43757887935542       -1.75825883261444
H            2.77497334971481        3.82958223067056       -2.34181417377830
C            5.68889773922114        4.44649829731674       -0.73968251135522
H            6.14415122836171        3.86807519164915        1.27180868083473
H            4.97825148590271        4.89172275626803       -2.71005915109996
H            6.65098634431178        4.90904252167884       -0.90435625439626
C           -1.75612329714430        1.45662031015027       -2.48316467967530
C           -1.44567599692803        1.79049456991342       -1.26803620307984
H           -2.69667802734104        0.98865601547283       -2.72639951624514
H           -1.08653791709939        1.64281461820656       -3.30678684950792
C           -1.09601696701079        2.05390674315988       -0.05172978210216
H           -1.33159362824982        3.01810665065378        0.37520955419272
Cl           1.20975683214250       -0.43627550127408        2.12585124675422
Cl          -0.71840684171741        1.83604094340036        2.86539628959949
O           -1.45853585388933       -0.47034377401148        1.24606685939250
O            0.35517348615494        0.01799733820684       -0.50343762799950
C           -1.74759435348128       -1.73742727438729       -0.67943029252855
C           -0.38896531244016       -2.16677014758392       -0.65161658901854
C            1.94972389742686       -1.66926980533697       -0.46261943229689
C           -3.51330623892624       -0.31655182529032        0.14333067121092
C           -4.34182101062614       -0.62532424481849       -0.92117370215922
C           -2.67835990214310       -2.28555840254860       -1.57433290183987
C           -3.90788126376351       -1.72307840706908       -1.72675719457887
C           -0.03878039631343       -3.52154860676265       -0.77040330880798
C            1.23723320185972       -3.92763611274563       -0.52230299223243
C            2.28472972362894       -2.99951478304499       -0.27221106395840
H           -2.36385784042800       -3.09607602588152       -2.21194307927767
H           -4.57422813036781       -2.12182707580961       -2.46950003236256
H           -0.82113139514098       -4.24295074918775       -0.94232945188608
H            1.45943766548253       -4.97979243773423       -0.52624540386223
C            3.60819114281557       -3.53904517682233        0.25336237965548
C            2.94410187615509       -0.58837053455624       -0.83594890157626
N           -2.24371869098003       -0.81041769155270        0.21464673570097
N            0.64906467462453       -1.27574505952435       -0.56017766476694
C           -3.94674236696956        0.43743523597163        1.39133440752020
C           -5.61072892802430        0.10763718737599       -1.35091895709302
C           -6.86308485022460       -0.57269802189391       -0.77862967068803
C           -5.56629861591800        1.59666221333005       -0.97375300015233
C           -5.72421983663140        0.05222915834373       -2.88874679267468
H           -7.74951167979816       -0.08521304337502       -1.17638791151900
H           -6.88705605594844       -1.62189819675460       -1.06535265606870
H           -6.89747617382133       -0.51202326490061        0.30270420580097
H           -4.58050206925949        2.01358118376248       -1.16816053991985
H           -6.28878608124580        2.14374263681242       -1.57456976987363
H           -5.82435865075939        1.77723305396304        0.06157048887939
H           -6.01205717869148       -0.93184029127477       -3.24703878113273
H           -6.49629578712446        0.74551320925456       -3.21186222728385
H           -4.79132972361991        0.34210487943748       -3.36539009307904
F           -3.66083825850014        1.74041550223528        1.37574252119624
F           -3.44620330863984       -0.08333177614353        2.51010600638167
F           -5.27720675511097        0.34323948637680        1.58358830978552
F            2.43048013260236        0.27707632641499       -1.72694142404062
F            3.98647469931278       -1.12523255636057       -1.50610696379269
F            3.47039306980949        0.14358927412608        0.14082377125028
C            4.44394933517132       -4.13710424476042       -0.88615248182127
C            4.41151122596960       -2.48029588095911        1.01874154450901
C            3.28484027300300       -4.65128033587724        1.27045873108269
H            3.88586869166392       -4.91107712498633       -1.40833075956645
H            4.72862786125179       -3.37413132915677       -1.60389242320991
H            5.34863718649957       -4.57978772101854       -0.47758888710478
H            4.95854954814014       -1.81488037093529        0.36172903526823
H            3.75562923121941       -1.89677952605078        1.66076006854016
H            5.14865703163964       -2.97455123458701        1.64679673417558
H            2.89077373980810       -5.54731126071432        0.80074402994727
H            4.19628138928996       -4.93520701236740        1.78975798219018
H            2.57030132737271       -4.29116605383419        2.00589023010156
