75
 energy: -137.338548664001 gnorm: 0.000753761166 xtb: 6.5.1 (b24c23e)
Si           0.30987782216653        0.64780785757575        1.36158539838566
O            0.25785510860039        2.05112421960548        0.58164596113230
C            0.53838832828117        2.50814309353401       -0.72022649153928
C            1.18555893712137        3.86927136160519       -0.64120058227518
H            1.20750741332382        1.80678319443011       -1.22306413081379
C            0.95484680644142        4.70334693286540        0.44327869163467
C            1.99787039874640        4.30592109425803       -1.68012608564418
C            1.53409033240055        5.95955626642983        0.48855762902914
H            0.33402577050529        4.35341825972821        1.25324625542025
C            2.57004690395573        5.56434327265095       -1.63557591064019
H            2.18421127492346        3.65396887227652       -2.52220027929999
C            2.33881760894801        6.39385991905932       -0.55066095563919
H            1.35494815826728        6.60101105648772        1.33870208198076
H            3.20135281478255        5.89707284194545       -2.44676000339011
H            2.78861383002991        7.37535006734246       -0.51532395504255
C           -0.77846550998325        2.60308368125119       -1.52150423012558
C           -1.20988417817854        1.30775331551308       -1.99267213933085
H           -0.62423783718071        3.26218612387643       -2.37970148640752
H           -1.54063820087357        3.03626797224659       -0.86983550458898
C           -1.53981387845599        0.22813732966726       -2.39181639216052
H           -1.81266697773211       -0.72101864615640       -2.74633340338714
Cl           1.99482261522052       -0.26526129400553        2.18227688112098
Cl          -0.29275489894729        1.52201807427578        3.14749017224358
O           -1.05081848527971       -0.39020677828851        1.47219940891419
O            0.71434651132685       -0.23492460846890       -0.29560469032007
C           -1.17194161122071       -2.21926860891883       -0.02291688989866
C            0.22012714483250       -2.48410204917429       -0.04400527318003
C            2.47269945532837       -1.71438862163882       -0.34292274175793
C           -3.03072442893373       -0.70735283129459        0.29336070669436
C           -3.85129454396007       -1.43609951340458       -0.54562999695972
C           -2.09659451654537       -3.13217739236212       -0.57231112699829
C           -3.36739320913086       -2.74839253822470       -0.85244110809989
C            0.74896775102830       -3.78659007246284        0.07250408263453
C            2.09041269760835       -3.98633348343295        0.17314548084561
C            3.02729151337978       -2.92886559422989        0.01866721590753
H           -1.75006784746044       -4.11156102618396       -0.85853515328911
H           -4.03247132636377       -3.45207313519670       -1.31838795987151
H            0.06805288198991       -4.61253290321035        0.19412385943805
H            2.45179040983282       -4.98260017931850        0.35503566753925
C            4.48861177580660       -3.18896936950389        0.35984672973541
C            3.18747202109393       -0.58306832257403       -1.05699158514532
N           -1.73188037352870       -1.07319464151936        0.51247180081321
N            1.13363781601316       -1.48987405471732       -0.25331477100431
C           -3.44480865219524        0.45195636805071        1.18715360252770
C           -5.13821861715224       -0.97643239121956       -1.22750377719678
C           -6.37104172842169       -1.25715470285893       -0.35641078919074
C           -5.04602221613250        0.50526925416462       -1.63016939327507
C           -5.32647835191839       -1.76064315178173       -2.54192212603968
H           -7.26886486582592       -1.00406123794982       -0.91434359821551
H           -6.41249373793718       -2.31287784687832       -0.09620540630398
H           -6.36757723448167       -0.67854489807785        0.55900478153159
H           -4.07519230491784        0.71506192146522       -2.07599428109240
H           -5.81481689668894        0.72634664472831       -2.36655733429387
H           -5.20134850368498        1.18341040749663       -0.80219401827687
H           -5.62811782534315       -2.79011956111233       -2.36989319622438
H           -6.11843011634050       -1.29198469119114       -3.12021473331905
H           -4.42053488062143       -1.74787567626865       -3.14255952942267
F           -2.86698710711043        1.60854688043913        0.85549396624815
F           -3.17425012061245        0.18497648000670        2.46841462426933
F           -4.76303919559985        0.69145997418708        1.19809865975391
F            2.41632263234427       -0.09392719474080       -2.04500922282739
F            4.27558198575265       -1.02089986865079       -1.71352802345472
F            3.57496360173121        0.45252012873074       -0.31928150757915
C            5.23334147108318       -3.79532862701541       -0.83734297402393
C            5.18639218352702       -1.91666640545619        0.86289656147872
C            4.53817630646712       -4.19864641215494        1.52275285246188
H            4.73855097106844       -4.70427142578026       -1.17332322197868
H            5.28037834464329       -3.10094595377635       -1.66937733399783
H            6.24894877158532       -4.04408944270691       -0.54113438007506
H            5.50404680945927       -1.26417744536996        0.05950913003132
H            4.53098746806455       -1.36549391639804        1.53348042325146
H            6.08227296362173       -2.19132524349605        1.41381181796663
H            4.27426819332991       -5.20539930481510        1.21178337906554
H            5.55182673547921       -4.24109031299681        1.91188202326429
H            3.87792063864995       -3.88526449091579        2.32722084828294
