75
 energy: -137.332461024031 gnorm: 0.000938157917 xtb: 6.5.1 (b24c23e)
Si           0.23201243706168        0.72628702599710        1.13357706043095
O           -0.78072607986210        1.57359742854979        0.21303963596600
C           -1.58258666999764        2.70122103063312        0.47141049902893
C           -2.82126545652471        2.59876054119925       -0.38107392966756
H           -1.84811745359849        2.72409404916221        1.53559161957474
C           -2.72669877748520        2.09758115375993       -1.67328457620169
C           -4.05427785327656        3.01656932965172        0.09916945471231
C           -3.85191937096211        2.01585684350897       -2.47443589950116
H           -1.76581604271958        1.76162642947139       -2.03342218967235
C           -5.17793758500680        2.93804818801498       -0.70480884709176
H           -4.13152204033948        3.39834083970906        1.10619623005337
C           -5.07945828878270        2.43873636900715       -1.99255769819636
H           -3.77129288993611        1.62270798443176       -3.47790410986386
H           -6.13444457062599        3.26468274903147       -0.32416949420226
H           -5.95784765287972        2.37686685789507       -2.61842299981340
C           -0.79693123125986        3.97695340776438        0.11072287754371
C            0.31974321730560        4.16864748352034        1.00989558414762
H           -1.47079932316051        4.83600102994016        0.16285111021783
H           -0.42347922742931        3.87223205376160       -0.91136856565174
C            1.23927862609634        4.29172938461804        1.76500026480500
H            2.04745643080053        4.41196942572180        2.42198166117849
Cl           2.22420608006522        1.00248744719543        1.65904373424227
Cl          -0.46106090231492        1.25667323831620        3.05420205548205
O           -0.24286281324278       -0.91161115674863        1.41229136961121
O            0.81712405690130        0.13973001367474       -0.57154379954235
C            0.07319047187533       -2.39667919132691       -0.38335992401637
C            1.44174150145171       -2.05512075593160       -0.53727847057845
C            3.09394143647037       -0.32226369236111       -0.78414941493232
C           -2.13561924014390       -1.81980364641680        0.38757857294954
C           -2.73657668295311       -2.58779878208955       -0.59038177144467
C           -0.51734042657983       -3.45900191818945       -1.09710941956629
C           -1.86628891279283       -3.52255629432330       -1.23763046761796
C            2.46429637539859       -3.00298481183068       -0.69304338148334
C            3.76515492071595       -2.60364542592778       -0.72624124118776
C            4.14751625899859       -1.23569360501062       -0.72434469651136
H            0.12454083262899       -4.14813756390121       -1.62112674036930
H           -2.29799994250645       -4.29925189449432       -1.84307672349799
H            2.20940225780064       -4.04997167820181       -0.69315591218634
H            4.52260269132071       -3.36265098123909       -0.77889613972856
C            5.62587364996086       -0.89597535700142       -0.52959832136091
C            3.27616730720626        1.10755238102162       -1.28755348739696
N           -0.78028511915879       -1.69081896815644        0.44204874955109
N            1.80886225540743       -0.73657384350828       -0.63816627848316
C           -2.86459432715587       -1.22697344311183        1.58114893952362
C           -4.16951661679825       -2.47639954014890       -1.09574991818269
C           -5.04823397219159       -3.59409854487142       -0.51962100450241
C           -4.78524175187582       -1.09697239721253       -0.81660069124492
C           -4.13155789504804       -2.62415478592261       -2.63058243770477
H           -6.04360316794986       -3.53034184370662       -0.95111478133827
H           -4.63073515491187       -4.57027929693487       -0.75574922721247
H           -5.13537128639702       -3.50808239074405        0.55841751345771
H           -4.05665473844940       -0.30576743711399       -0.97725495096040
H           -5.61331713977687       -0.92689010824893       -1.50006772329748
H           -5.18732419414290       -1.00723422385503        0.18429011771243
H           -3.88242888053981       -3.63180283469040       -2.94810357757342
H           -5.11380290776243       -2.39366541306944       -3.03409233421289
H           -3.41385422886614       -1.93062469171116       -3.06220354504663
F           -3.13652735570671        0.07497428852463        1.48682938620163
F           -2.20068581693666       -1.43155838616562        2.72024145264926
F           -4.03673944290888       -1.85250544440546        1.79660338212390
F            2.19113736564980        1.85648960702769       -1.42976490533473
F            3.77830523413108        1.02448622450738       -2.54874937648021
F            4.13337547796847        1.85630170538170       -0.59417201158226
C            6.22187616902726       -0.00304364427144       -1.62791429159827
C            5.75487969365106       -0.23516806686658        0.85465009365066
C            6.50006356717597       -2.16044549077134       -0.49225764756497
H            5.91636600062809       -0.34855635287673       -2.61241209264733
H            5.94827024317562        1.03752023596121       -1.51854693593624
H            7.30663974225759       -0.05172708705186       -1.57447938044948
H            5.12319553234406        0.63774028475089        0.96084694474932
H            5.47212341199452       -0.94246644867734        1.63085655229060
H            6.78757857706363        0.06210944350242        1.01589831327389
H            6.48421594292697       -2.68700881088895       -1.44382006496943
H            7.52686900637523       -1.86025639333034       -0.29839429213809
H            6.20792065910658       -2.83403283190923        0.30908351461551
