81
 energy: -143.697733434977 gnorm: 0.000734292245 xtb: 6.5.1 (b24c23e)
Si          -0.00849206853441        0.30917727698037        1.51339479316154
O           -0.65562105836692        0.97155319105021        0.21902301230710
C           -0.89755021904017        2.21770715014421       -0.40292074186924
C           -2.37081168271790        2.32680373414128       -0.70717575408698
H           -0.31038326610839        2.19624012685310       -1.32943637173244
C           -3.30879009453396        2.12024508229235        0.29682911959510
C           -2.80063732978395        2.67635167618799       -1.97999195740754
C           -4.65824439642235        2.27638354651381        0.03349330306576
H           -2.98225057070992        1.83512148473797        1.28633174070811
C           -4.15058541651449        2.83606477650170       -2.24109192502246
H           -2.07264958414743        2.82727581174081       -2.76326690037173
C           -5.08128405624579        2.64113472848494       -1.23384630212970
H           -5.38060181569625        2.11804104380173        0.82035556621797
H           -4.47723609013390        3.11190724755512       -3.23284946720401
H           -6.13412555473626        2.76754262345909       -1.43749298666985
C           -0.46102241339073        3.41209377355237        0.45939778241134
C            0.97964484331120        3.53825237382439        0.51402776216005
H           -0.88130062350355        4.32098474486756        0.01936800685531
H           -0.86636631775286        3.29425020580929        1.46826101389577
C            2.17131792858914        3.63547348492107        0.53524393142146
H            3.21555550428282        3.72186397097008        0.54400255352315
Cl           1.97304222738496        0.57401868915702        1.75138103898060
Cl          -0.95015652434749        0.81191790294447        3.21523672971196
O           -0.19626813069924       -1.29426086822387        1.26403869363224
O            1.20452131145263        0.65373406595061       -1.98917847739630
C           -0.09563541094754       -1.54844342555911       -1.11751804897558
C            1.35088014337696       -1.40050124322141       -1.01731760809685
C            3.27032679221718       -0.05146127977564       -1.39399835660389
C           -2.08498395438874       -2.15586814954580        0.10962804773009
C           -2.90827244205368       -1.80140203653469       -0.94752397912761
C           -0.86520110140164       -1.34945721394290       -2.24713233463504
C           -2.25637790007830       -1.40695439230818       -2.12360414190297
C            2.15234230081465       -2.33312796698533       -0.35470707519195
C            3.46655424060329       -2.00532539826597       -0.08855745301341
C            4.05985846203646       -0.82621208351861       -0.54497098694335
H           -2.83221136337619       -1.16440543280562       -2.99679425933268
H            4.04366150503031       -2.70050545136588        0.49361770674661
C            5.44279591997922       -0.45464536749320       -0.01543320306729
C            3.71693510184310        1.04994399005014       -2.32993087147657
N           -0.71334162074641       -1.93109713847829        0.05467992568422
N            1.91890074755134       -0.25541281585044       -1.48829191090215
C           -2.42235360792917       -2.82269656087764        1.41458780707884
C           -4.43385581722559       -1.86575973587937       -0.94384529344684
C           -4.88425622573923       -3.28821667757718       -1.30844607850840
C           -5.01369199395767       -1.43601654804163        0.41038863503703
C           -5.01455558853795       -0.90917707838382       -1.99895981402289
H           -5.96946374093927       -3.31931787276626       -1.36666896576534
H           -4.47714229463935       -3.57418642183152       -2.27613879597354
H           -4.56178830910394       -4.01624991981357       -0.57282802710442
H           -4.51176135667156       -0.54078981228526        0.76931942822283
H           -6.07124083294674       -1.20914791313648        0.29826085605654
H           -4.93777648266079       -2.21106431928087        1.16221054280390
H           -4.85855176688077       -1.27564365762156       -3.00990356221374
H           -6.08889758983573       -0.82924193939189       -1.85191144908257
H           -4.58426519596231        0.08387405348977       -1.90427530397527
F           -2.82592954456089       -1.97700186401577        2.38162714764636
F           -1.36044880090486       -3.47546682691476        1.91514057881222
F           -3.37627776380505       -3.76711637274126        1.32781689904482
F            3.55811765678878        2.29403951263603       -1.86724443066431
F            3.07443326040343        0.97981269177429       -3.50642820452073
F            5.01169767143085        0.94280738008401       -2.68181423798860
C            6.54848737094690       -0.98259470980433       -0.93916872675052
C            5.55660177494715        1.06174500119389        0.19613802161206
C            5.64509753721944       -1.09122026414070        1.37231896779245
H            6.44838541852554       -2.05859645345669       -1.06598171093218
H            6.51828803415437       -0.51732110280352       -1.91745932185621
H            7.51831687305422       -0.77648306553380       -0.49347777513540
H            5.67048319942788        1.61435652904856       -0.72704544300317
H            4.67819446073033        1.42211850932464        0.72709369649135
H            6.43380993237756        1.27639635285827        0.80187569846232
H            5.81588071772781       -2.16257332581777        1.31286789536746
H            6.52554782753440       -0.65436003433782        1.83619955650359
H            4.78906707630706       -0.89453715385401        2.01273296947068
C           -0.24959854529444       -1.11093957276474       -3.58405332314896
H            0.57877438494371       -1.79595048378648       -3.75497317124572
H           -0.98576221621458       -1.23381800475310       -4.37295299349704
H            0.15195990494311       -0.09661914948748       -3.62468393599456
C            1.59728836661368       -3.64306699016083        0.09756291171065
H            0.88108769976183       -4.03292058538653       -0.62175779713082
H            2.39899502557232       -4.36353626951326        0.23603904704718
H            1.08093845830291       -3.52101678286186        1.04848608814484
