81
 energy: -143.673831248263 gnorm: 0.000944903386 xtb: 6.5.1 (b24c23e)
Si          -0.31376742242891        0.62014780625370        1.24261029175629
O           -0.00127272033853        1.87837850561240        0.28270425875970
C           -0.29520254563490        3.24508400813994        0.45815729320380
C           -1.66712635226568        3.57298435681249       -0.07305265041342
H           -0.24959878758035        3.48436421360497        1.52913722817487
C           -2.22235361411754        2.82500603447878       -1.10104381226215
C           -2.37686369725541        4.64289522213542        0.45680799055889
C           -3.47936978610727        3.13850746648130       -1.58703617483391
H           -1.66441984299545        1.99517646444229       -1.50469913506163
C           -3.62929350893309        4.96003518302813       -0.03723642899689
H           -1.94840311273209        5.22222623070369        1.26300088266318
C           -4.18385874957424        4.20664231449551       -1.05852794105797
H           -3.90919134052920        2.54589973470113       -2.38130248216171
H           -4.17670464401002        5.79269008670374        0.38070777581798
H           -5.16537145997373        4.45128729088387       -1.43791170805168
C            0.79224858786398        4.06050554723804       -0.26979714410910
C            0.93000325784999        3.63928167238498       -1.64690363792501
H            1.74245163030161        3.91645602567956        0.24926017298235
H            0.52161627818837        5.11861277449389       -0.23088953575894
C            1.05174033710328        3.25686231806569       -2.77430351010379
H            1.14886061874616        2.94295973685726       -3.77081821319376
Cl          -2.05723199720857       -0.29064697610046        1.93850542994981
Cl          -0.00098194020639        1.56427948805301        3.12468573228149
O           -0.58233452003956       -0.27812963794130       -0.40496157187287
O            1.05384697655877       -0.37124266709123        1.52799379464431
C            0.26591318988464       -2.40253737708954       -0.10208213478822
C            1.56965109872340       -1.78471591976882       -0.27979341606903
C            3.03385357886740        0.04413497678580        0.32592749320085
C           -2.09337825269783       -2.04489457079321       -0.36748999957438
C           -2.39467224326859       -3.30293179368462        0.12614820995028
C            0.02314844365477       -3.72813864008368        0.23927697729797
C           -1.28861020771661       -4.12769202249091        0.42101884344031
C            2.42749995210540       -2.11127775220698       -1.31878314500953
C            3.47082058865465       -1.24201911319942       -1.61291513601801
C            3.76254980128957       -0.09870973191165       -0.83965441448658
H           -1.45751371372311       -5.12244560721925        0.79181218018525
H            4.05092882547760       -1.44584226447788       -2.49347420710460
C            4.78942877857195        0.88952039311639       -1.39093681802300
C            3.39590080337693        0.87429153849714        1.53499058062456
N           -0.80364799830129       -1.58966101755933       -0.33852124901236
N            1.91577417584700       -0.74377903391074        0.54074595780746
C           -2.99759128422001       -1.14178078910100       -1.18338997669857
C           -3.79065394192845       -3.82715501534398        0.44772796111017
C           -4.77692144253449       -2.69155633468886        0.75134156293626
C           -4.30138246028592       -4.70425524654239       -0.70387011859665
C           -3.71518821336330       -4.68979223661325        1.72163879302454
H           -5.63527895853150       -3.09285342378987        1.28403506218859
H           -4.30787727850839       -1.93871935017705        1.38020050262437
H           -5.16060274617233       -2.21990936537478       -0.14435990202837
H           -3.60918750149367       -5.52100652351240       -0.89831567459464
H           -5.26669601671859       -5.12534908549778       -0.43561833091990
H           -4.42053416769862       -4.12846479837477       -1.61578549237277
H           -3.18320930371280       -4.16080594132338        2.50791006754209
H           -4.72343209253453       -4.89409111233289        2.07148864283645
H           -3.23953368519352       -5.65075027377668        1.54692044540749
F           -2.30053237702102       -0.50507612924179       -2.13551777477329
F           -3.70193107121345       -0.22000576145130       -0.53676504824026
F           -3.88425424296349       -1.87485420397050       -1.89154283407679
F            3.10550538492227        0.24315789777954        2.67562724023961
F            2.83105737676106        2.08441360328519        1.58306066542642
F            4.72546592497639        1.07975940422270        1.62377179830690
C            4.45545880317511        2.33425370528804       -0.99423908072173
C            6.20673675092725        0.50019339537680       -0.94878452782770
C            4.74884551969640        0.85473704223271       -2.93130471568599
H            3.40415266925864        2.54136527960218       -1.18426051504807
H            4.68616344903074        2.55707260727462        0.03895977965015
H            5.04651672684285        3.01825697627930       -1.59869387937528
H            6.33397807787618        0.59187614048408        0.12368737948964
H            6.42307356844140       -0.52688379758303       -1.23536584665656
H            6.92650840152830        1.15370218396302       -1.43487798045357
H            3.72564918931081        0.92333425606991       -3.29156062970536
H            5.30172743701088        1.70682398157084       -3.31800033056793
H            5.21641473264211       -0.03784419322451       -3.33772366952151
C            1.14247313670779       -4.67424716220357        0.54047601637642
H            1.21016403424472       -5.43844598149570       -0.23242449335985
H            2.09187061479010       -4.15231352770535        0.60770084428093
H            0.95193392861733       -5.17722184855925        1.48590077386123
C            2.17870266314647       -3.28234858648475       -2.21706725283776
H            2.44196205116562       -3.02780051565369       -3.24046990644882
H            2.80349469241050       -4.12123273381293       -1.91257451151377
H            1.13976918485271       -3.59542279968358       -2.18944667066886
