81
 energy: -143.672766983882 gnorm: 0.000855322329 xtb: 6.5.1 (b24c23e)
Si           0.17956474343149        0.96057343128430        1.01875224995424
O           -0.96334681247226        1.55483716275608        0.04660042312236
C           -1.80561275042652        2.67561943135112        0.17594622520903
C           -3.03937856609135        2.43649578778451       -0.65519669381809
H           -2.07024339915901        2.81014656797410        1.23229408294363
C           -2.92545319730884        1.82487996006529       -1.89779902749132
C           -4.28704676527726        2.85338157955770       -0.21192688577267
C           -4.04564471516706        1.63811849190258       -2.68815926829470
H           -1.95304095774731        1.49103334915835       -2.22742949182774
C           -5.40624221137728        2.66591531722660       -1.00459488428091
H           -4.37861387950013        3.32088137932493        0.75717191836595
C           -5.28764330115430        2.06052200227790       -2.24427665187046
H           -3.95002979265200        1.16908551085011       -3.65716365961344
H           -6.37372459791576        2.99180115330778       -0.65246060525312
H           -6.16143981639124        1.91690993645901       -2.86292106868150
C           -1.07819328604615        3.93434893779537       -0.33740310947536
C            0.00425682461287        4.31585450504478        0.54266758829561
H           -1.79909199004583        4.75277663213713       -0.41300733148020
H           -0.67649683077342        3.71483004780637       -1.33015983250583
C            0.89930593575541        4.60872889351738        1.28006102830032
H            1.68721013112813        4.85780567352080        1.92571922066249
Cl           2.14089143319507        1.47059207092843        1.48140439134655
Cl          -0.53694010745233        1.65613059649093        2.88455860507638
O           -0.08753922469265       -0.67200733795709        1.45960811901110
O            0.84384239838338        0.31272287028754       -0.67313077937341
C            0.12001799188286       -2.13269398320469       -0.37652190037430
C            1.54321038708264       -1.82958367889572       -0.37846741868832
C            3.15198414021406       -0.07493592565354       -0.71805132824768
C           -2.04752193650332       -1.66848593632183        0.60348587924029
C           -2.70286231318366       -2.23438311825248       -0.47177119275387
C           -0.49966306249405       -2.89712123041309       -1.35021036380125
C           -1.88842562280305       -2.89151711098240       -1.41868849980086
C            2.56614585573526       -2.74351214325995       -0.17043643720418
C            3.86232387332819       -2.26676823889047       -0.12956052014792
C            4.21035516084980       -0.92857899305929       -0.40387952677345
H           -2.34427030151186       -3.39687535313732       -2.24935410637366
H            4.62935442208765       -2.97492055056855        0.12088609387559
C            5.66825570483454       -0.50958822379597       -0.19718763023328
C            3.31596036573735        1.27121583738202       -1.41009924867625
N           -0.66395699811013       -1.55840805895810        0.59424766877274
N            1.86795482733909       -0.52594052890462       -0.62713429440937
C           -2.65402500083535       -1.28252365412598        1.93155731012858
C           -4.20506552103432       -2.18524333565333       -0.74775738924043
C           -4.86731801832943       -3.47595994300830       -0.24579733991073
C           -4.87976064017136       -0.95210893372328       -0.13155480171935
C           -4.43069350381161       -2.08509070236141       -2.26904171051631
H           -5.92154215727997       -3.46630319987907       -0.51022294634067
H           -4.40222292978895       -4.34631718858244       -0.70388949236655
H           -4.78550494946013       -3.56903064392607        0.83196758579264
H           -4.26561821493206       -0.06691607464343       -0.27237503485739
H           -5.83203823119523       -0.77564772534691       -0.62554485411917
H           -5.09596604764644       -1.07218472629978        0.92214220034657
H           -4.23570335148817       -3.02323055266332       -2.78076231115961
H           -5.47015025179174       -1.83065510982210       -2.45786495965734
H           -3.80801839958130       -1.30379194296307       -2.69637537358192
F           -3.08900725820275       -0.02175839544221        2.01406972781849
F           -1.81609958246275       -1.48796449335194        2.95076472422720
F           -3.70801979497658       -2.07023315976571        2.23663099485135
F            2.20993026200094        1.93964382251511       -1.70758288211745
F            3.88913048221858        1.03808980838573       -2.62357810467509
F            4.10484556096235        2.14952979511123       -0.79097038637983
C            6.28529458111790        0.21878378696750       -1.40021324729569
C            5.70704102057703        0.36896298591225        1.06516352410350
C            6.58070457672252       -1.71731025339574        0.07677503430841
H            6.03525940013774       -0.28952746650445       -2.32832189666268
H            5.97691012683271        1.25291775603709       -1.46911295060985
H            7.36766221555185        0.22043662495627       -1.29811880888319
H            5.05188649059432        1.22813552895344        0.99315301517348
H            5.39461461288163       -0.21071349046268        1.93059521295808
H            6.72303130111279        0.71825711182184        1.22908012315295
H            6.58567545423233       -2.41266108862081       -0.75966844259735
H            7.59654918461783       -1.35483560381481        0.21336168010942
H            6.30612351899216       -2.23815218635171        0.99018632925381
C            0.27843916887594       -3.61719493817757       -2.40758207603536
H           -0.22430583932452       -3.52228925449769       -3.36685352416047
H            1.28707973050973       -3.22704607571306       -2.50046760162001
H            0.33490910854868       -4.67820505945383       -2.16685725040998
C            2.28507550018850       -4.18379495438466        0.11819365060329
H            2.56437403726603       -4.80000091015450       -0.73524425350919
H            2.87659041826024       -4.51142345091937        0.96991554281465
H            1.23380418076651       -4.34180242058375        0.33824624582510
