81
 energy: -143.673598330431 gnorm: 0.000785826434 xtb: 6.5.1 (b24c23e)
Si           0.16297412117363        0.93366160947269        0.62762694638084
O           -0.51678814110872        1.77607145490291       -0.57502685878883
C           -0.71830813102967        3.17540418718000       -0.64512229117621
C            0.54567118527924        3.92116679200459       -0.30340310999856
H           -1.51355191709655        3.44650499006545        0.06053418048353
C            1.75305010785989        3.49428557485124       -0.83945320585640
C            0.52615474634533        5.01556480303957        0.54849673588283
C            2.93177836444844        4.13769352297339       -0.51123437250658
H            1.76739277100955        2.63764164630177       -1.49556205083564
C            1.70447517943881        5.66754670602637        0.86617960786142
H           -0.40960950652403        5.34273900812379        0.97660458439794
C            2.90831367831409        5.22736131152780        0.34212184954751
H            3.86577390197332        3.77916551290613       -0.91667704221470
H            1.68392010697893        6.51360163568908        1.53718887204470
H            3.82820546598852        5.72916041496064        0.60443372089726
C           -1.14009326204345        3.51286160266414       -2.08529626919150
C           -2.46341839947217        3.03401204933286       -2.41626652952353
H           -1.11207989862774        4.59923588116136       -2.20822628236960
H           -0.41447316430996        3.06017488960315       -2.76537979683395
C           -3.56043722126567        2.65583850148673       -2.70933549252635
H           -4.52227295217140        2.33701141742859       -2.97951285804708
Cl           2.13094230910320        0.77444507245472        1.31199170370327
Cl          -0.37108722213053        2.19733259973168        2.25650798668559
O           -0.75919591682066       -0.32334759860074        1.33410355370271
O            0.62208121983780       -0.22021673351193       -0.79386427788185
C           -0.92612157181497       -2.21494081650126       -0.06056621106185
C            0.52147408803719       -2.36139464551210        0.05085255871908
C            2.62241775096084       -1.38730084448538       -0.57153166297403
C           -2.88126630848575       -0.92083712053225        0.52521828369987
C           -3.63294936858268       -1.52697483788380       -0.46506242990742
C           -1.70515323391062       -2.99502680011198       -0.89545657894203
C           -3.01990796476540       -2.59998983528273       -1.13777644334377
C            1.18652335735467       -3.44074845001056        0.61287129282251
C            2.56847946733998       -3.37431308511792        0.71568540633128
C            3.33275823825649       -2.34417227630684        0.13686686494563
H           -3.56755080641037       -3.14249792326039       -1.88572832105496
H            3.06329173962165       -4.15970049272271        1.25787058996064
C            4.83482528325025       -2.32334541516886        0.40224562944318
C            3.15690045795500       -0.48059469429180       -1.66037113612510
N           -1.52648266279885       -1.19835733617451        0.62710219514677
N            1.25587627698723       -1.34837511329701       -0.48266739889365
C           -3.38598303822503       -0.08080939717570        1.67457307998111
C           -5.03214727501198       -1.11001568519457       -0.91364871521079
C           -6.08277578078188       -1.99251212676289       -0.22594522975803
C           -5.31389892750206        0.37625268794397       -0.65294816405891
C           -5.14806782265988       -1.31216863231903       -2.43727024920193
H           -7.07099679137482       -1.73529806788768       -0.59837444143487
H           -5.89524608185056       -3.04318073691514       -0.43684798548217
H           -6.07435269325809       -1.84986454734689        0.84958346074105
H           -4.44650646279761        0.98251226559406       -0.90511086820501
H           -6.14698606845286        0.69772254764303       -1.27393849870454
H           -5.60158883078506        0.57730178915241        0.37090508528087
H           -5.21172483641307       -2.36040004217818       -2.71408531104441
H           -6.06019090889279       -0.83793382001008       -2.79042963771660
H           -4.30403056972916       -0.85724412216953       -2.94995439200064
F           -3.39286362891320        1.23635467298396        1.45664581127271
F           -2.69498320923610       -0.30376953272879        2.79604083887772
F           -4.64705479161116       -0.42069082531768        2.01697280143235
F            2.24586727442810       -0.29717266815707       -2.62666619578906
F            4.18209442806059       -1.07618627674333       -2.30826593304961
F            3.58760742963629        0.72759762629628       -1.31038142905246
C            5.55674255886553       -3.25623347667763       -0.57969260810326
C            5.41362025364425       -0.90433057408370        0.33280688637719
C            5.08859114928256       -2.82784305844541        1.83514333860535
H            5.16201832951220       -4.26755472534839       -0.50797988739508
H            5.44473198440890       -2.91408355946020       -1.60336189859720
H            6.61652781888144       -3.28057322715550       -0.34035842959126
H            5.59257518019628       -0.57693312703220       -0.68366851044198
H            4.75084644638191       -0.19875758602773        0.82808751987306
H            6.37453483275475       -0.88231888894032        0.84065871027114
H            4.93779972310843       -3.89911049996472        1.93293011767928
H            6.12188750146190       -2.62670754517142        2.10426983201979
H            4.44584986017029       -2.30696715085701        2.53973847565155
C           -1.14660546891743       -4.16570097983502       -1.64220478601642
H           -1.50432318156858       -4.15358337267448       -2.66888855133177
H           -0.06148960602457       -4.15789618982812       -1.64976827670199
H           -1.48691650928579       -5.09358763518992       -1.18382313533961
C            0.44625675479571       -4.59155601442434        1.21721694034399
H            0.62152613065434       -5.49728236007459        0.63827284199840
H            0.80829528381678       -4.76983347663503        2.22755529784154
H           -0.62097862491634       -4.39791282599853        1.25803515337938
