81
 energy: -143.596077195530 gnorm: 0.000679096567 xtb: 6.5.1 (b24c23e)
Si           0.02714342198785       -1.06146531950932        1.09038878111833
O           -1.42462686454934       -2.03515814827107        0.73761230826014
C           -1.83842189521877       -2.48476986659892       -0.37369167566091
C           -3.08243104224280       -3.14585075397826       -0.50965322581864
H           -1.21685086035426       -2.33494843306322       -1.25457885881297
C           -3.93679138355130       -3.31699946869950        0.59847700770120
C           -3.49201306331362       -3.63324764796942       -1.76616085943160
C           -5.14654538378136       -3.95395320585875        0.44804337213537
H           -3.61830235768973       -2.93058339126814        1.55366843533327
C           -4.70478437451188       -4.26947394390649       -1.90005139130440
H           -2.84255640576117       -3.49611138893390       -2.61767075349425
C           -5.53580528539912       -4.43461764103374       -0.79728622061116
H           -5.79888896473873       -4.08125429740077        1.29915959597060
H           -5.01573454400606       -4.64223863408492       -2.86511269269609
H           -6.48607424769719       -4.93479815630896       -0.91001432051101
C            1.40419178077983       -1.69754414733228       -2.65239485667805
C            1.29634661851760       -1.89269746679366       -1.37413066294940
H            2.15204743348157       -1.04126539318166       -3.06789886552292
H            0.74173562799283       -2.17427091312563       -3.35596905779471
C            1.17367029171620       -2.05989653741271       -0.09868335700083
H            1.71860613491049       -2.86543302101814        0.37815650701572
Cl          -1.34752690898386        0.32588793412890        2.00383935836058
Cl           0.49251286803102       -2.07833080354951        2.84014903323565
O            1.23774689564857        0.34638113348672        1.27793408182946
O           -0.48170099622524        0.04998750347836       -0.81396056554901
C            1.69094651603979        1.49957665667523       -0.65468871154372
C            0.36319880281480        2.11654389508064       -0.46419748407469
C           -1.97532520335676        1.76251971550502       -0.55373259878030
C            3.35964997386274        0.07218366666817        0.30960743383162
C            4.11570257990114        0.10264862740296       -0.86338724562384
C            2.48185385579510        1.70528364216625       -1.75740283877785
C            3.66066232192695        0.95102230123338       -1.87198216129138
C            0.16809543809658        3.43662705707684       -0.10097454505536
C           -1.13052075441487        3.84735161671822        0.17383874313342
C           -2.23757838130540        3.01977093484981       -0.00272760144281
H            4.21967608786122        1.05272266684244       -2.78390722053204
H           -1.26451383973475        4.84579231999175        0.54925629124451
C           -3.59572837213412        3.50216527384476        0.50093528639366
C           -2.96896930710851        0.82251387343296       -1.19778120345358
N            2.11283927753432        0.67013080441093        0.33296879548627
N           -0.69556286154774        1.29928516853926       -0.63225571337569
C            3.79524572533348       -0.40627860495457        1.67254394685018
C            5.35927196773465       -0.74261948282738       -1.14216199560539
C            6.62292039513146        0.04798162035073       -0.77396365640570
C            5.31548427115916       -2.08830545617755       -0.40597550430290
C            5.43651898419963       -1.07818125886014       -2.64353133103361
H            7.50139666710798       -0.53585432481111       -1.03654911321000
H            6.65452402964183        0.98716062791077       -1.32253889825924
H            6.66481096339882        0.26771952813233        0.28675323445204
H            4.32769733461486       -2.53464994879750       -0.49219726379682
H            6.03407572728548       -2.76953094509461       -0.85520552440806
H            5.57892597977129       -2.00509990579010        0.64024392406553
H            5.69226242892263       -0.21431231642111       -3.25063926745653
H            6.21888817163010       -1.81644716250794       -2.79967671898074
H            4.49875533931579       -1.50209325109359       -2.99256833665847
F            3.54419094852058       -1.69180681487185        1.93477007274157
F            3.25216857448195        0.31710568811021        2.65477122191237
F            5.12394296595631       -0.24048232928791        1.85771598188848
F           -2.42905676433552        0.17814917188032       -2.24582058397562
F           -3.99742948710375        1.49476114881288       -1.75284478648041
F           -3.50685346165626       -0.10763975722197       -0.41143813489796
C           -4.32147467141516        4.30163857441633       -0.59033003857844
C           -4.45288964033890        2.33135531271836        1.00192760932909
C           -3.38257443386366        4.42987131078397        1.71125835358347
H           -3.71172322571135        5.14295715038714       -0.91384842655125
H           -4.54820010345863        3.68779505521274       -1.45508889919517
H           -5.25604841393074        4.68633006897800       -0.19064688362326
H           -4.95671346560493        1.80636869354393        0.20005233696895
H           -3.83829728286505        1.63122735223360        1.56324425025539
H           -5.22845116649889        2.70893858152303        1.66317006632635
H           -2.98080142916138        5.39894694804004        1.42798097706956
H           -4.34148830787774        4.61263874883919        2.18868723968961
H           -2.72477915624530        3.95971760422958        2.43708939154478
C            1.31539791345102        4.37914875975364        0.06918308888187
H            1.37371076409914        5.05302636462838       -0.78533362898796
H            1.17176137076987        4.98282603286621        0.96170909880853
H            2.25647615126303        3.84351690311885        0.15235544036557
C            2.08936008768017        2.64061771754476       -2.85652607772320
H            1.05975787305009        2.96948318971096       -2.75129980287053
H            2.73933366058596        3.51541342354505       -2.84997467978288
H            2.20371808568964        2.15030376921599       -3.82097202521062
