81
 energy: -143.697732422308 gnorm: 0.000846121785 xtb: 6.5.1 (b24c23e)
Si           0.00785239757923        0.30824819681050        1.51263775062213
O            0.65846765916147        0.97093431099520        0.22022380210848
C            0.90001082271538        2.21648782026145       -0.40296959373367
C            2.37285453748621        2.32563269850783       -0.70895263874679
H            0.31182259551510        2.19470236057362       -1.32882621994854
C            3.31210641791304        2.12144492402694        0.29437038071021
C            2.80093205425718        2.67441519337105       -1.98265184110880
C            4.66111278851706        2.27968389679394        0.02961298083841
H            2.98682734688609        1.83678309668694        1.28445480747886
C            4.15040047289953        2.83622010111828       -2.24517353577222
H            2.07186493032692        2.82323004121560       -2.76539645234041
C            5.08236406012290        2.64408591099240       -1.23847694342730
H            5.38440421549712        2.12338930638257        0.81603665846901
H            4.47566425837822        3.11144189105942       -3.23758047397789
H            6.13479001404188        2.77238471803393       -1.44323250479447
C            0.46546115991122        3.41160024556555        0.45942207112506
C           -0.97496326441013        3.53953495041997        0.51582214366849
H            0.88641036595464        4.31978640445175        0.01860074980047
H            0.87167705557660        3.29372083466108        1.46801295315335
C           -2.16658565932250        3.63698450863192        0.54004329816383
H           -3.21070274261795        3.72619877744913        0.55084857902237
Cl           0.94795188040813        0.80930687031712        3.21592167138026
Cl          -1.97380890760726        0.57491975393323        1.74768492198815
O           -1.20486089551093        0.65591636179589       -1.98764898098197
O            0.19331196170214       -1.29516758484301        1.26260256781899
C           -1.35153942364493       -1.40040257580058       -1.02057835950730
C            0.09527504903306       -1.54776509742052       -1.11939500639139
C            2.08289693245196       -2.15693140965373        0.10920689879521
C           -3.27066474370600       -0.05000516734112       -1.39338938554776
C           -4.06056212490510       -0.82764102697964       -0.54725553695729
C           -2.15331599257825       -2.33543946850104       -0.36194540638133
C           -3.46785156583874       -2.00888870763464       -0.09577939027203
C            0.86614685187994       -1.34665115610953       -2.24763519218288
C            2.25723676679655       -1.40380627388922       -2.12236124896044
C            2.90760448127460       -1.80018097413297       -0.94618400555234
H           -4.04542030916798       -2.70660980966442        0.48305805659574
H            2.83410304019806       -1.15897226129729       -2.99421590878160
C            4.43318929300889       -1.86369263452385       -0.94005362593110
C            2.41845987021512       -2.82472937124743        1.41410289789919
N           -1.91939174350129       -0.25414517990053       -1.48879562970397
N            0.71140514297394       -1.93202083882179        0.05296448242516
C           -3.71741380662182        1.05468847296424       -2.32541252031167
C           -5.44263769223640       -0.45671552466126       -0.01489030503693
C           -5.55469241570964        1.05906750297375        0.20237903049265
C           -6.55023450614666       -0.97999050463906       -0.93891844036613
C           -5.64362575009789       -1.09797026370163        1.37088057226022
H           -6.43091605832844        1.27208539180084        0.81008779706404
H           -4.67536398666958        1.41664882851394        0.73356549838061
H           -5.66928888174929        1.61544854452774       -0.71838086248135
H           -6.45166100845820       -2.05565659491510       -1.06979534872025
H           -7.51913389290178       -0.77437191188282       -0.49103793281660
H           -6.52100430671926       -0.51118882906140       -1.91558285165771
H           -4.78743372379526       -0.90231679578788        2.01131913800774
H           -6.52432431456627       -0.66343843192024        1.83661710823717
H           -5.81343071195715       -2.16931135001532        1.30842544938561
F           -3.07604786441273        0.98747283332512       -3.50285523998335
F           -3.55666669106097        2.29725481915003       -1.85908853503457
F           -5.01248004694314        0.94983873324442       -2.67616975543165
F            1.35634129311275       -3.47971626915960        1.91132496640226
F            2.81813718186267       -1.97884556106265        2.38301123732830
F            3.37431857741795       -3.76714072511270        1.32923090349420
C            5.01007486292023       -1.43319464212514        0.41525952882793
C            4.88516905768543       -3.28590809353678       -1.30364702419441
C            5.01513672645150       -0.90711375598621       -1.99449384251738
H            4.50607595842713       -0.53884721795730        0.77345577463063
H            4.93400674497982       -2.20848575148943        1.16683775550980
H            6.06743146546522       -1.20453704681505        0.30501078264664
H            4.56166658867948       -4.01422655058484       -0.56880263897238
H            4.48023116136902       -3.57201770926168       -2.27220441165893
H            5.97051523501070       -3.31632848792482       -1.35965290616461
H            4.58384803136959        0.08563382764374       -1.90124700662174
H            6.08911057490318       -0.82611990781690       -1.84543206611136
H            4.86133625113216       -1.27441004144767       -3.00552043441524
C           -1.59830149196912       -3.64671304925787        0.08666257027261
H           -1.08447658894311       -3.52780404564465        1.03931975385782
H           -2.39985303628713       -4.36814665393995        0.22044306033031
H           -0.88031236370460       -4.03343964211898       -0.63240296999990
C            0.25211342687838       -1.10602735214707       -3.58489563516983
H           -0.57496552995560       -1.79202935014066       -3.75858771415919
H           -0.15117685758197       -0.09233748221646       -3.62376313757859
H            0.98961333928565       -1.22574004807992       -4.37304413879134
