81
 energy: -143.690138795133 gnorm: 0.000591623978 xtb: 6.5.1 (b24c23e)
Si          -0.46323099812283       -0.62504753985174        0.30647020033809
O           -1.66421582853593       -1.61520011066378       -0.06249487527538
C           -1.92579413802360       -2.96817289810835        0.24483854698974
C           -3.07986278534391       -3.45130991503430       -0.59689058583936
H           -1.02387666314085       -3.55583941894325        0.02451469185482
C           -4.11672558109230       -2.58981512933480       -0.92741601425135
C           -3.13362843586552       -4.77712598338925       -1.00686333027773
C           -5.19315660688277       -3.05076687417443       -1.66471925252737
H           -4.06459305073403       -1.55697740480255       -0.62217307497381
C           -4.21456424526781       -5.23664665416110       -1.73776334564549
H           -2.32565678406380       -5.44911865519402       -0.75345092191078
C           -5.24666585301199       -4.37411528720283       -2.06756475735525
H           -5.99314056791242       -2.37319306393913       -1.92311697208429
H           -4.24909697276236       -6.26887996328464       -2.05368990461709
H           -6.08866612984891       -4.73342080154819       -2.64047911965525
C           -2.27082132181466       -3.12760533180162        1.73891004300827
C           -1.10105025247137       -2.94503015829991        2.57083712068414
H           -2.68246599238027       -4.12739869950835        1.89880784485632
H           -3.03194735598898       -2.38737727685289        1.99875058522097
C           -0.10559310405647       -2.78909749398571        3.21666450838963
H            0.75889309622742       -2.64172923753432        3.79253685571869
Cl           1.29167969628769       -1.61532147500836        0.30056644683581
Cl          -0.81617271604391        0.42088726285075        1.98061156367704
O           -0.42477226795553        0.38101987272830       -0.97927802227209
O            2.34824945610398        1.41430619800848        1.55308957220394
C            0.75575089759316        2.35116213978415       -0.35915534995106
C            1.98142223778904        1.62483093554092       -0.67382195767299
C            3.90554050244930        0.51624026022016        0.17270700986417
C           -1.62969747108725        2.41094789258758       -0.70464587077281
C           -1.79473546987073        3.37004060186081        0.28333662130004
C            0.65705165897660        3.44515023781144        0.47508735197644
C           -0.61776536209994        3.89799636000759        0.82796815315519
C            2.33014419173378        1.23992537691014       -1.96568954719237
C            3.40065633711087        0.38144849602399       -2.13031085205095
C            4.19943215387644       -0.04888151385183       -1.06849956044422
H           -0.67073687893123        4.69164329142763        1.54943459789860
H            3.61127932021427        0.04249402794825       -3.12807332652728
C            5.23653849423397       -1.14035716692463       -1.32826561701683
C            4.71871926431470        0.49240592905204        1.45042247939215
N           -0.38206041512031        1.83911070688677       -0.94673444226604
N            2.73923705956532        1.20547522151010        0.37653445093307
C           -2.62580914071831        1.85638107893745       -1.68129053050215
C           -3.13296267075249        3.89584567821259        0.79556450209907
C           -3.56592695961660        5.10348192576159       -0.04676852423601
C           -4.21613953658905        2.80945397081082        0.78048529863193
C           -2.98683692801010        4.35122895420981        2.25834156323011
H           -4.48725408343859        5.51630033789259        0.35675125598993
H           -2.79989184768060        5.87558043732391       -0.02244814245110
H           -3.73930855088636        4.82437020809307       -1.08084694607609
H           -3.82365825782824        1.87701490880373        1.17981567268378
H           -5.05098721163996        3.12034357848855        1.40422481665150
H           -4.61521306376444        2.63416449152730       -0.21054973958524
H           -2.43761974493325        5.28454078879983        2.34344698642157
H           -3.97425384895417        4.52293863410925        2.67967904061931
H           -2.49000496139722        3.58743691674873        2.85116934983552
F           -3.36720700847033        0.83030201874215       -1.22189844918913
F           -2.01507651385472        1.40067260570414       -2.78615830635859
F           -3.50620671960749        2.76905993595114       -2.13714379624715
F            4.30556737470226       -0.40181056111019        2.35388077735572
F            4.71498060133788        1.69761619611596        2.04281633498923
F            6.02806756699344        0.25320746095955        1.26005411949536
C            6.62880914166784       -0.53622157646004       -1.55800010235430
C            5.23359550061337       -2.16114602271854       -0.17944146022400
C            4.86862981956139       -1.93046588838497       -2.59722692761658
H            6.59759763502341        0.16480410609404       -2.38985578472090
H            7.00144517228267       -0.01493030274275       -0.68499813913054
H            7.32912011965533       -1.33074672198956       -1.80288477976943
H            5.73025311289346       -1.80261009088628        0.71181412930802
H            4.21053739035469       -2.43211212409254        0.07303830608016
H            5.75823298183425       -3.06038076991965       -0.49275439480679
H            5.03046276070865       -1.35185996293646       -3.50292047245758
H            5.50868625624347       -2.80685427093155       -2.66197774855107
H            3.83574765687027       -2.26697314740724       -2.55939425277364
C            1.53739631118299        1.70540223721900       -3.14136891750014
H            2.11211280010421        1.59264754494357       -4.05648284579769
H            0.62792114185354        1.11287002803184       -3.23063474950510
H            1.24311743076899        2.74564739225568       -3.02385594748208
C            1.86798185460450        4.12748285704913        1.01333603676342
H            2.65436211119028        4.17922856883613        0.26311144434451
H            1.62552394233232        5.13048110965060        1.35211100490314
H            2.25310024730108        3.55155571054523        1.85751537421585
