81
 energy: -143.697269759574 gnorm: 0.000568364228 xtb: 6.5.1 (b24c23e)
Si           0.07781038563486        0.88415123086605        1.47774328356867
O           -0.68979141210474        1.33325553944334        0.15169841566944
C           -0.50019213040859        2.28683805317540       -0.88558216326612
C           -1.62878201065112        2.10452175572927       -1.86815995132856
H            0.45115468398943        2.05295313104536       -1.37612712233649
C           -2.93924931262153        2.38501985961564       -1.50247277098679
C           -1.36125933616950        1.65040165492707       -3.15191583661359
C           -3.96411571171361        2.24589393512300       -2.42182926793284
H           -3.16191302480312        2.71128517605264       -0.49728126474224
C           -2.38924889307300        1.49865177165221       -4.06626059763896
H           -0.34423880266241        1.41293993840934       -3.42213619969619
C           -3.69020734536933        1.80717285311448       -3.70734918085130
H           -4.97822471059809        2.48624026851706       -2.13615020606233
H           -2.17340786932701        1.14509391808110       -5.06361942148188
H           -4.49204103162792        1.70013861429297       -4.42326732258467
C           -0.46620468106206        3.71951928899129       -0.33434951594922
C            0.76671350354731        3.99507706199898        0.37101414479886
H           -0.56586836432522        4.41188152521722       -1.17449785768470
H           -1.30930338162337        3.86610352579668        0.34580450964702
C            1.79297731383048        4.19862946594745        0.95102138285250
H            2.69094160003243        4.38428672655388        1.45960080489840
Cl           2.09020128877900        0.95512517030480        1.39249523891372
Cl          -0.55489023859103        1.87906333935979        3.09465555147208
O           -0.31206721463838       -0.68701326881303        1.70321303303723
O            1.21579159023277        0.00218541294410       -1.91196971108146
C           -0.30501461258179       -1.68260160735269       -0.47662060763112
C            1.15210305843874       -1.70980416166897       -0.42055771098992
C            3.20764955404160       -0.79875956510196       -1.19633904487453
C           -2.31352219102260       -1.65441268163352        0.86498676395320
C           -3.12289771243699       -1.57895794082580       -0.25761229491475
C           -1.07737190415924       -1.74862470092378       -1.61883295149658
C           -2.46386768256888       -1.62639519478907       -1.49423784048506
C            1.85715679877298       -2.51828765635309        0.47132277537484
C            3.22049016326789       -2.33450754126336        0.59347424972984
C            3.94116618213040       -1.43396410260092       -0.19481447744187
H           -3.03215593876761       -1.60297686333853       -2.40459045755381
H            3.73216271820007       -2.92095478104689        1.33450811709177
C            5.40182929868510       -1.15870675928464        0.15542578470119
C            3.70219187132618        0.00382926380230       -2.38126250740261
N           -0.92744869514309       -1.60449873203460        0.75180230627274
N            1.83920834878393       -0.83217399384711       -1.19998139858362
C           -2.67635983113667       -1.80323624907602        2.31810315376994
C           -4.64868550835497       -1.50566611142593       -0.24167867715054
C           -5.23140848613773       -2.91542326955253       -0.06106716790537
C           -5.14356691141600       -0.55087472266639        0.85371217306238
C           -5.18490568674850       -0.96351396486508       -1.57671474805893
H           -6.31615174141865       -2.86573660315017       -0.11551738387548
H           -4.87525565672011       -3.56955334436972       -0.85440937786384
H           -4.95995532027903       -3.35430391063782        0.89124984637923
H           -4.56099598459534        0.36760080596687        0.84312082955929
H           -6.18498236857434       -0.29518275487173        0.67322702629658
H           -5.09391652074578       -0.98586929135250        1.84344923781700
H           -5.07280275255248       -1.68521130743770       -2.38158647461410
H           -6.24881665871164       -0.76289090027901       -1.47412691237313
H           -4.68697066012989       -0.03777357052504       -1.85100217207621
F           -2.93315521161492       -0.63749627577531        2.94023061891698
F           -1.68081374032010       -2.38419836893702        3.00857904834944
F           -3.74015653680341       -2.58911089972794        2.55987660312144
F            3.60168939683127        1.32962612302743       -2.23003634456054
F            3.02597318395881       -0.32265168782396       -3.49708820939164
F            4.97837684229016       -0.23963722536410       -2.71851094902481
C            6.34907144981084       -1.99082915385542       -0.71996039642679
C            5.69566675677331        0.34626527657752        0.05539369297244
C            5.67586631964150       -1.54490824748873        1.61999462575089
H            6.12495422707269       -3.04990034045512       -0.60823269344930
H            6.27430623693978       -1.73379882831084       -1.76932021353294
H            7.37434958726922       -1.82031261042531       -0.40171227817665
H            5.78127414716526        0.70016181960052       -0.96294126525769
H            4.91140312746057        0.90777466368136        0.55843578914131
H            6.64138239502276        0.56293206709865        0.54587378812864
H            5.69063290224166       -2.62191405403530        1.76536688493992
H            6.65745769138356       -1.17285543758735        1.90247761591213
H            4.93972067996953       -1.09681283196285        2.28227188544424
C           -0.47012252599804       -1.98802847847370       -2.95943096284885
H            0.25386480095128       -2.79992835158660       -2.91535908072858
H           -1.23623098222441       -2.22842409454604       -3.69034875581999
H            0.05983821256223       -1.09116352272251       -3.28292008224933
C            1.15291459991478       -3.53469124474190        1.30733765244074
H            0.35547518926191       -4.01621334858203        0.74633630784047
H            1.85371700080745       -4.28755914082241        1.65781226719708
H            0.70439418551705       -3.05434954260592        2.17592541796805
