81
 energy: -143.596074128285 gnorm: 0.000660182705 xtb: 6.5.1 (b24c23e)
Si          -0.02842838257799       -1.06063891534818        1.08883662121923
O            1.42536921220948       -2.03532121720637        0.73593598221936
C            1.83878908827863       -2.48541783303167       -0.37480400122951
C            3.08281471709265       -3.14711709675626       -0.51016447544645
H            1.21720105891597       -2.33649505822487       -1.25591661846667
C            3.93659430834478       -3.31706767623043        0.59851361079574
C            3.49252228965628       -3.63645264390278       -1.76575813465494
C            5.14602366296474       -3.95491450930426        0.44957539606365
H            3.61785289457869       -2.92908578659560        1.55298248709295
C            4.70496461110476       -4.27360340387152       -1.89821000000948
H            2.84357975618951       -3.50029614660884       -2.61780990677896
C            5.53540046015614       -4.43767810169517       -0.79488410057817
H            5.79789156472940       -4.08135097234303        1.30115212566513
H            5.01615350572431       -4.64794450383502       -2.86257878444313
H            6.48535731054240       -4.93861256412927       -0.90651316112843
C           -1.40461457666457       -1.69728050414019       -2.65378004405422
C           -1.29829264684329       -1.89234145653795       -1.37520747975940
H           -2.15162020260701       -1.04021693696621       -3.06990332389299
H           -0.74157385713995       -2.17417260136111       -3.35693666270932
C           -1.17313341930560       -2.06075626811223       -0.10041607710403
H           -1.71737535086550       -2.86665121832238        0.37626572129835
Cl           1.34687898700838        0.32507706219231        2.00388077383279
Cl          -0.49189608252230       -2.08005723646747        2.83763430538936
O            0.48194903089269        0.05046951521416       -0.81323424654507
O           -1.23824471750639        0.34445467055089        1.27879908273599
C           -0.36329563513784        2.11680235574194       -0.46227880320308
C           -1.69097056920607        1.49965104710798       -0.65323084184752
C           -3.36057950051243        0.07261631344251        0.31013194574527
C            1.97526756217264        1.76358408436014       -0.55323855817308
C            2.23744659824012        3.02072466999687       -0.00183988513733
C           -0.16846124040903        3.43669722503232       -0.09839242616853
C            1.13021559130326        3.84765785739382        0.17628886200765
C           -2.48096466452819        1.70490752390756       -1.75663803226969
C           -3.65979211094336        0.95065104912191       -1.87194139594275
C           -4.11586435768544        0.10285112608450       -0.86333372392334
H            1.26390724738624        4.84584785243429        0.55253409198724
H           -4.21783469053387        1.05192827897278       -2.78449292987271
C           -5.35942079816076       -0.74236288875902       -1.14259922545471
C           -3.79610512789530       -0.40585326844073        1.67294338354519
N            0.69554193527393        1.29984693197306       -0.63105432627064
N           -2.11338816221609        0.67010650100334        0.33406192353755
C            2.96851397786379        0.82438409459005       -1.19880750286453
C            3.59597043108258        3.50356065762387        0.50048234788601
C            4.45415965535179        2.33300906392023        1.00032681592598
C            4.32008357016176        4.30374831458942       -0.59137840531067
C            3.38357222881134        4.43122191884453        1.71096906996810
H            5.22983711708472        2.71059164341820        1.66137875689797
H            3.84038888193838        1.63205395779102        1.56143502828762
H            4.95798278999503        1.80895451831472        0.19789516193811
H            3.70813074771824        5.14283911992459       -0.91656264001260
H            5.25314011295549        4.69178925245719       -0.19137989232280
H            4.54945330444308        3.68944608905875       -1.45508207845786
H            2.72645885393017        3.96110014211454        2.43742039477734
H            4.34288718671095        4.61401232833386        2.18757964984587
H            2.98154428397528        5.40026926062572        1.42795320747089
F            2.42768139295221        0.18080320974549       -2.24684973375956
F            3.50720118050159       -0.10636694063581       -0.41383266794810
F            3.99637259099614        1.49715097325411       -1.75431841593164
F           -3.25409696250819        0.31902721281422        2.65487005360083
F           -3.54316461719108       -1.69085915696532        1.93575863823751
F           -5.12502612127612       -0.24211432200129        1.85810450177946
C           -5.31452085174375       -2.08891566565383       -0.40819045006537
C           -6.62333879353151        0.04707461382784       -0.77313493368038
C           -5.43747496445770       -1.07625454449837       -2.64427767662439
H           -4.32724035322021       -2.53570511915846       -0.49775935338369
H           -5.57484789603909       -2.00700263623635        0.63883205881466
H           -6.03490150529213       -2.76906654188769       -0.85619054752601
H           -6.66565263894139        0.26482063332895        0.28791972220521
H           -6.65517940254806        0.98722875257097       -1.31995701750929
H           -7.50157822079107       -0.53655661136133       -1.03702073148378
H           -4.49943638221002       -1.49832381303428       -2.99468507469210
H           -6.21884908564374       -1.81551930309754       -2.80071453884407
H           -5.69504021685191       -0.21193880230444       -3.24993898874800
C           -2.08734425543081        2.63971708844019       -2.85576085161605
H           -2.73565550398213        3.51564590578753       -2.84897946927045
H           -1.05717115480485        2.96687221848649       -2.75082894770050
H           -2.20275861347427        2.14971013116748       -3.82010892472719
C           -1.31590239949236        4.37905287656960        0.07176435714503
H           -1.17284423198408        4.98226985383087        0.96463639310814
H           -1.37366557181156        5.05333042571681       -0.78244017809896
H           -2.25704186275003        3.84342594334555        0.15403171462355
