81
 energy: -143.690179972680 gnorm: 0.000827553395 xtb: 6.5.1 (b24c23e)
Si           0.46342001007214       -0.61933645081079        0.29883589943471
O            1.65763817012255       -1.61457913704051       -0.08026330089342
C            1.92367674053498       -2.96225234551575        0.24516980767361
C            3.06880978103754       -3.45948079844486       -0.60086610474170
H            1.01987669954071       -3.55381357144984        0.04310373249514
C            4.08930744176037       -2.59876768757252       -0.98013776228435
C            3.13060058224494       -4.79832775198633       -0.96555506287529
C            5.15674538122519       -3.07322327948559       -1.72221803902377
H            4.03173775762260       -1.55695335296661       -0.70825583317689
C            4.20265552545799       -5.27103731024094       -1.70089406079283
H            2.33550406274259       -5.46991461572289       -0.67310697482270
C            5.21788668767689       -4.40888598651277       -2.08072404975591
H            5.94369968483746       -2.39613447674608       -2.01913111587683
H            4.24354790479367       -6.31331835867765       -1.98124132694884
H            6.05264262360445       -4.77844008973523       -2.65774511528863
C            2.28387937811638       -3.09937936329562        1.73790427536684
C            1.12006760724251       -2.91711679481842        2.57822440165306
H            2.70619400123020       -4.09323354725125        1.90700576743291
H            3.04062743399187       -2.34898073774510        1.98092046696107
C            0.12628948127531       -2.76419184783924        3.22726529426512
H           -0.73428251633979       -2.61941956700821        3.80950485389913
Cl           0.83120717534702        0.42450009704376        1.97178996022730
Cl          -1.29265889376766       -1.60830405648045        0.30832065147956
O            0.41627131042787        0.38821255878886       -0.98353840873814
O           -2.34598567105606        1.40112735358584        1.55684629065875
C           -0.75979832462086        2.35893102801767       -0.35214830939539
C           -1.98676353105080        1.63562850943175       -0.66964528238318
C           -3.90448213014453        0.51458112834109        0.17092553540925
C            1.62331965946980        2.41942886372851       -0.70436601121364
C            1.79306722045298        3.36926643916002        0.29207986408256
C           -0.65786325068594        3.44315168255776        0.49446762221758
C            0.61846535970354        3.89082469290714        0.84780673465002
C           -2.33922569512802        1.26348310360022       -1.96434068589079
C           -3.40325678930048        0.39783573223122       -2.13375855943804
C           -4.19456714688064       -0.04723099797479       -1.07246663389788
H            0.67425124078783        4.67539982207024        1.57886509548813
H           -3.61510129929782        0.06503943718016       -3.13348266744830
C           -5.21880017741227       -1.14976452371022       -1.33524898552280
C           -4.73127153637734        0.48743667162373        1.43898212337845
N            0.37545032537468        1.85034646964472       -0.94685506778284
N           -2.73962777406021        1.20438807901575        0.37926620108617
C            2.61656633249469        1.86908513573331       -1.68689315431353
C            3.13359049083944        3.89353147050870        0.79992762348168
C            4.21567637141448        2.80613959539227        0.77801748016018
C            3.56261787327119        5.10282809078111       -0.04209483038940
C            2.99651118335762        4.34714997819893        2.26399036220899
H            5.05353770936723        3.11491768147842        1.39872288080886
H            3.82381330934570        1.87342825922187        1.17729602087390
H            4.61010014211666        2.63216513482710       -0.21506388412945
H            2.79841918859278        5.87643608736941       -0.00874507708736
H            4.48803985611406        5.51228946156409        0.35541621120469
H            3.72710417600777        4.82746014229648       -1.07852550253069
H            2.51090721340295        3.57930482934940        2.86080659062298
H            3.98651183026919        4.52626820110707        2.67617295182494
H            2.44137848466363        5.27647038520659        2.35455329137605
F            2.00165304620377        1.42028652047181       -2.79273140515577
F            3.35696064973311        0.83945414644758       -1.23517788315179
F            3.49720081231062        2.78238654991907       -2.14040817822482
F           -4.71043267924373        1.68191176609185        2.05266218099775
F           -4.35331358546546       -0.42900487524183        2.33471564214590
F           -6.04263484678801        0.28311457008425        1.21994828704072
C           -5.24400021941244       -2.15059231547816       -0.16939749713941
C           -6.60787635500003       -0.55661582859590       -1.60784009050307
C           -4.80991785569725       -1.95792456851593       -2.58036997395826
H           -4.22800030584275       -2.39956286256829        0.12998675544007
H           -5.78540989718033       -1.78598867931909        0.69325529140615
H           -5.73930704313308       -3.06462944851701       -0.48777589880676
H           -6.99938731924981       -0.02073009215528       -0.75157529069372
H           -6.56210022119233        0.12909440339569       -2.45160533561285
H           -7.29966089555753       -1.35873570437202       -1.85215363133823
H           -3.77259072728334       -2.27554239258509       -2.51169340505000
H           -5.43380653509663       -2.84591489011586       -2.64351753696594
H           -4.95880271342576       -1.39978351582635       -3.50080498599019
C           -1.86658116321833        4.12081560577029        1.04347697399282
H           -2.65007448982394        4.19310773735097        0.29164029642541
H           -2.25775170415270        3.52894015430399        1.87377778289918
H           -1.61961109927002        5.11490901770507        1.40456899008191
C           -1.55469720969228        1.74834105020785       -3.13776599009219
H           -0.64847309509833        1.15373884289937       -3.24624853077397
H           -2.13797118133780        1.65573694369632       -4.04969774396486
H           -1.25478503787785        2.78485339200733       -3.00275100678650
