81
 energy: -143.677961869277 gnorm: 0.000336538538 xtb: 6.5.1 (b24c23e)
Si           0.42919567966299       -0.59187139977178        0.58431128983873
O            1.11077088345716       -1.84381682287459        1.33435938486719
C            1.13615160624002       -3.22391514291596        1.04665852503555
C            2.07369783060538       -3.50909253788392       -0.09784044922874
H            0.12253166525673       -3.55900737396440        0.79668952175444
C            3.21431370421011       -2.73711832208649       -0.27064757302350
C            1.81143920237921       -4.54838547642410       -0.97996161153527
C            4.07835766951164       -2.99576280139886       -1.31946737695474
H            3.41344813173334       -1.92230264985967        0.40887734741397
C            2.68118965331025       -4.81062443398173       -2.02321659452033
H            0.91820367994368       -5.14312446229867       -0.85276501608544
C            3.81502054391157       -4.03426972345594       -2.19590353354761
H            4.95754231519084       -2.38246307252184       -1.44997905060313
H            2.46882715628915       -5.61841750550850       -2.70841885305991
H            4.48912970332346       -4.23621342120686       -3.01559481554120
C            1.60506126832617       -3.94231129659641        2.32428765001461
C            0.61091549988041       -3.81783385848921        3.36847984610926
H            1.77683815544565       -4.99728731184505        2.09525063876292
H            2.54343721954608       -3.48916618488922        2.65306221994387
C           -0.24256372393104       -3.69026754930998        4.19698815617069
H           -0.97739409503530       -3.58224892643326        4.93723954792300
Cl           1.55543138325298        0.64843210151405        1.92676859735489
Cl          -0.65646731424503       -1.79839356453105       -0.88918015914425
O            0.77324882907986        0.40368506947359       -0.79568096338330
O           -0.98157877321849        0.19947894298979        1.17231518109587
C           -0.41978275314571        2.35521531641136       -0.36420243259081
C           -1.64706884745860        1.58606776529052       -0.57592483040004
C           -3.02688118882647       -0.26078595356787        0.14382968810912
C            1.99257805538938        2.36297454007701       -0.43444722982204
C            2.05896674450624        3.58456428025380        0.20960173079587
C           -0.39766162586025        3.66783833327008        0.07728941980524
C            0.82700325280318        4.23362231576445        0.41267264447584
C           -2.53403630958209        1.82677123649950       -1.61312664669837
C           -3.55244324573015        0.90867909108186       -1.84040399582197
C           -3.80107852694865       -0.19355275478486       -1.00018106489481
H            0.81006965848284        5.20382812178750        0.87427544462138
H           -4.15014058020863        1.04558337904848       -2.72282989219190
C           -4.80942349310079       -1.24572039025875       -1.45225638015730
C           -3.27995069302325       -1.05462284893105        1.40667609975365
N            0.77619785134955        1.75008703577537       -0.62830403939026
N           -1.93978547669275        0.56979953899309        0.28847218369852
C            3.09649936344121        1.60608608854084       -1.13739282681749
C            3.32414304701400        4.21233976833779        0.78490960835805
C            4.31419470304808        3.13021468395430        1.23936684646543
C            3.96179861166590        5.16898566542820       -0.23186149769172
C            2.95995586474872        5.02160798797878        2.04224019309384
H            5.02256017091088        3.56015463970474        1.94271745758550
H            3.78023102769190        2.32485089676213        1.73885857866369
H            4.89498326179608        2.72315244699415        0.42162337270489
H            3.25166480049920        5.93990097496887       -0.52439690820791
H            4.82599635369656        5.64874708810819        0.21998156762111
H            4.28963693712100        4.64659557652605       -1.12372529905566
H            2.35910750383259        4.41937062521176        2.71808992205249
H            3.87461976234563        5.30231379771822        2.55754975478692
H            2.43352098378042        5.94236974163605        1.80600997288926
F            2.63614169577058        1.03735263411385       -2.26404284728859
F            3.69510607618583        0.64473730392829       -0.43635898396204
F            4.07192277012168        2.42187058846872       -1.57813299608142
F           -2.96560503114176       -0.33110563678447        2.49299263160807
F           -2.63658456755766       -2.21624128090588        1.50950275091909
F           -4.58667619336987       -1.32430506070950        1.58418982926652
C           -4.37978546586013       -2.64798266345069       -0.99555624993693
C           -6.21707188251622       -0.89553179051574       -0.95040037113505
C           -4.85053036624720       -1.28315630049991       -2.99086421767641
H           -3.30664051589158       -2.77149213546735       -1.12330928614001
H           -4.64058528149911       -2.85280712322551        0.03485064893023
H           -4.88336382364164       -3.39705016857345       -1.60121562042459
H           -6.27343405364702       -0.90594890805533        0.13220194340776
H           -6.50933286881495        0.09198343534149       -1.30200380110551
H           -6.92617740711279       -1.62340720567290       -1.33592890772470
H           -3.84590904068606       -1.35949042851766       -3.39811849913768
H           -5.41260467937979       -2.15794815134050       -3.30694419272096
H           -5.35027033299011       -0.41565054897131       -3.41351971773356
C           -1.65557720780326        4.43659593133053        0.33478519732664
H           -2.53393777352375        3.80305388187127        0.26762022796117
H           -1.61868738014655        4.87804734217308        1.32800779135757
H           -1.74825420347903        5.24817301312239       -0.38582407838680
C           -2.34334043512326        2.96226561891384       -2.56897441330582
H           -1.36770111905339        3.42319434820089       -2.45401985132691
H           -2.44421036044984        2.60529295418590       -3.59117006754652
H           -3.11136263984494        3.71698308673443       -2.40378527050052
