81
 energy: -143.695480057906 gnorm: 0.000370521785 xtb: 6.5.1 (b24c23e)
Si          -0.22316281459643        0.85780463451234        1.21382906952181
O           -0.67209956562311        1.27696410009964       -0.26265976987754
C           -0.24287922044842        2.25363143839966       -1.21075045602003
C            1.11830332038562        2.78552975609662       -0.84929299324955
H           -0.17883952647689        1.70292339472241       -2.15651970313451
C            1.28169000060556        3.70663220056682        0.17926659522037
C            2.23716321764238        2.29173961083036       -1.50539985312442
C            2.54989295647603        4.12071343627455        0.54564739916910
H            0.42312476276876        4.09341001011167        0.70775818882782
C            3.50450144635631        2.70579503471664       -1.13597780716879
H            2.10793248136675        1.56591642367493       -2.29270650456603
C            3.66266413027024        3.61981487879969       -0.10859203930464
H            2.66727143241941        4.83228482430210        1.34935654766619
H            4.36505392524493        2.30389003383855       -1.64805617458314
H            4.65138666663338        3.93959240117199        0.18533077178822
C           -1.30299501703082        3.36552808572648       -1.30693596742298
C           -2.30827170345071        3.08212212299664       -2.30819775592939
H           -0.80934940965684        4.30431161855760       -1.57263344950744
H           -1.78069205540169        3.48529840600597       -0.33097636996384
C           -3.11345577445693        2.86886850379455       -3.16752193540195
H           -3.82037123125878        2.70175217730728       -3.92444594651605
Cl           1.75338333823718        0.49015568302848        1.42334309315586
Cl          -0.80789606250539        2.15568855746014        2.62683966018719
O           -0.98947375864727       -0.54713589176803        1.51842780485069
O            0.98821487036284       -0.65298762201342       -2.03096950772974
C           -1.01840041589576       -1.72985878719112       -0.56880494751793
C            0.38080060572118       -2.06909956055776       -0.34982146851900
C            2.64593261548409       -1.80689459636780       -1.01117228288105
C           -3.07307743822562       -1.09388483678032        0.52911969454078
C           -3.72401214312348       -0.90798278581337       -0.67974956722324
C           -1.68239274702105       -1.73705116589467       -1.78136229928401
C           -2.99416761421408       -1.25774153345704       -1.82417419216803
C            0.80054904627721       -2.87222169410923        0.71510728649713
C            2.15155225798490       -2.95769958888788        0.98606109915164
C            3.12420052836418       -2.38849578072169        0.16140772811085
H           -3.45557873811372       -1.19301226930899       -2.79158311351839
H            2.45124841587378       -3.50275796650156        1.86310213246709
C            4.57208542111908       -2.37229168592619        0.64257950739882
C            3.42965988913054       -1.51011650872368       -2.26826644032179
N           -1.71601035505517       -1.39402371397307        0.57130890279349
N            1.31836439496068       -1.49832227468541       -1.15664021272921
C           -3.61291166877995       -1.05569350367870        1.93204358720576
C           -5.15769615508167       -0.41087068298570       -0.84844790967255
C           -6.12625015478876       -1.59789279439621       -0.74871890692765
C           -5.50645960665686        0.67164113180379        0.18163882032859
C           -5.33538001266835        0.23242480515161       -2.23365859481198
H           -7.14046672729539       -1.25366722853976       -0.93559881932042
H           -5.87397495338706       -2.35210119597908       -1.49134788345588
H           -6.09841379913912       -2.05970803500037        0.23187235092410
H           -4.70468146535523        1.40367761042532        0.24750460037439
H           -6.41144967498767        1.18927574654814       -0.12744902616648
H           -5.69914023739685        0.26754525811430        1.16685702770879
H           -5.34414060000444       -0.50710615034682       -3.02987549391516
H           -6.29228647937043        0.74797807133845       -2.26592820996709
H           -4.54696536835854        0.95799833312986       -2.41666085891196
F           -3.65785068626089        0.17321155995378        2.47961051077720
F           -2.86083867088035       -1.80021719963127        2.75996664131938
F           -4.85058328217094       -1.56631548132462        2.06346677541992
F            2.70391952771052       -1.77198181275539       -3.36639064317464
F            4.49817444276794       -2.31852895599312       -2.40102272561154
F            3.88821485041169       -0.26016805293292       -2.39860478419047
C            5.30072832631703       -3.65629936400675        0.22442659858130
C            5.31401837746282       -1.12442518413263        0.14317940051582
C            4.58298520067762       -2.29273425198259        2.18077692814949
H            4.76282451024522       -4.53006461261568        0.58613130743558
H            5.39407414435080       -3.73195314205577       -0.85333536132639
H            6.29852688166542       -3.66176220714440        0.65562362306056
H            5.61903534218550       -1.20021669222585       -0.89255915800626
H            4.69209249791878       -0.24085226591767        0.27133203848255
H            6.22100694969494       -0.98699822330777        0.72672394149810
H            4.29919602484699       -3.23309557663599        2.64448184158724
H            5.59053625155290       -2.06306842196938        2.51753086671284
H            3.91854920140488       -1.50499441787902        2.52655199262240
C           -0.18352372622625       -3.59641192311677        1.57263756198146
H           -1.01623962655642       -3.96970189920326        0.98155684315524
H            0.30035989712055       -4.42718675628278        2.07920034944685
H           -0.58727287922580       -2.92532309217796        2.32902309664165
C           -1.04698791049843       -2.26558341557882       -3.02196894231597
H           -0.49910861138484       -3.18325662513946       -2.81602501706849
H           -1.79567325815445       -2.45766801216790       -3.78481780149408
H           -0.32919900416778       -1.53651440967359       -3.40306829127739
