87
 energy: -124.580389472703 gnorm: 0.000717635351 xtb: 6.5.1 (b24c23e)
Si          -0.20270529643385       -0.79312520799160       -0.43482326155931
O           -1.65246194388905       -1.49146549395743        0.27058091602974
C           -2.67196654771163       -1.94122237984328       -0.36034960105052
C           -3.62569443905324       -2.78681011487426        0.24640207611236
H           -2.84511317489408       -1.59678261044393       -1.37707688027153
C           -3.44742571609611       -3.26542233492899        1.56163145420560
C           -4.77979605131424       -3.18015895128497       -0.46252015807074
C           -4.38306644208376       -4.09528154375913        2.13255417881513
H           -2.55738162875460       -2.97142852407675        2.09592358829775
C           -5.70673929209829       -4.01045922072802        0.12259000843098
H           -4.92175283285145       -2.81691382538144       -1.46984977287242
C           -5.51664719236108       -4.47280019401309        1.42067943117951
H           -4.23794688854365       -4.45994702015532        3.13919544771937
H           -6.58802009754918       -4.30800267841008       -0.42755016309493
H           -6.24758664647182       -5.12605100723607        1.87320014662197
C           -1.41045946407779       -4.33547378340495       -1.65754311316089
C           -0.76340026723630       -3.21708921951923       -1.80689420701560
H           -2.44416648932989       -4.44394823698225       -1.94340144591057
H           -0.92570905067421       -5.21378251965565       -1.26139737508162
C           -0.11782265493295       -2.10323698615250       -1.85457444862558
H            0.41160290164303       -1.81874378144701       -2.75082477319371
Cl          -1.36391639575483        0.54310783963357       -1.86708913053400
Cl           0.91449029892508       -1.79252698660471        1.11350324528201
O           -0.30248064928882        0.58132810279771        0.78467315454586
O            1.38536005468786       -0.08005679278538       -1.14631038625200
C            0.92055342860333        2.33835127182291       -0.01346043183380
C            2.13925292535004        1.57779185743546        0.22352346178872
C            3.52740252009111       -0.29907846283194       -0.25447445512786
C           -1.40903232783525        2.60568469434633        0.39470559503873
C           -1.42469271813988        3.80378817884121       -0.32057076209944
C            0.97903885231821        3.62365791437048       -0.52490487643625
C           -0.18975437962591        4.30601603956175       -0.76507495314182
C            3.14336507121673        2.12885134353448        1.00120947317920
C            4.26356347434162        1.38695921529786        1.28177922222773
C            4.47078967288178        0.13228259645292        0.68498492527903
H            1.93557140385536        4.03354884378114       -0.80722716151652
H           -0.13338661621787        5.25399162420475       -1.26785247395097
H            2.99578007914298        3.10578611742206        1.43314288947978
H            4.99198747495797        1.80342906480752        1.95234916880602
C            5.71263151065818       -0.66124854376703        1.10586784730388
C            3.83023938094472       -1.35189724625217       -1.29531499878343
N           -0.27948647162560        1.85286109654796        0.38313117263303
N            2.35592430153383        0.37857679982580       -0.37282941900199
C           -2.47421578959306        2.21034350554911        1.38891625586755
C           -2.70069572803890        4.56736269139428       -0.68053943840157
C           -3.82701217483178        3.58724762716385       -1.05146367599395
C           -3.12035152425453        5.51241579227948        0.45555806837950
C           -2.46273486377424        5.43573219545451       -1.92861982571790
H           -4.34562945143980        3.18972482018034       -0.18726679749319
H           -4.56778898041646        4.09290515533856       -1.66634579919545
H           -3.41793378779097        2.75775846071095       -1.62293734271278
H           -4.00789343383351        6.06611407001087        0.15808684789486
H           -3.34498125631607        4.98351111925040        1.37706683963639
H           -2.32395019075026        6.22431759904167        0.66367624579067
H           -2.03781100710638        4.84054558501924       -2.73263327201200
H           -3.41406617322150        5.83742293809370       -2.26961799978698
H           -1.81521826557820        6.28456010151604       -1.72387743113565
C            6.21235237472984       -0.18868148340563        2.48388425391546
C            5.39174991248484       -2.15714868696381        1.26588482244630
C            6.86450877529476       -0.43154551594095        0.11415509162642
H            5.40503987743421       -0.19890179580146        3.21153246140952
H            6.98921305712675       -0.86607251626648        2.83052228425899
H            6.65500902207936        0.80339447492796        2.44609527909350
H            7.10900515152697        0.62775981405022        0.06461683271797
H            7.74599230696317       -0.97293720166991        0.44972596762816
H            6.62518693408779       -0.76553316876235       -0.89084645652863
H            4.40680172682152       -2.27962777899752        1.70860585246302
H            5.42159302196598       -2.70039690068546        0.32951073311413
H            6.12154770194482       -2.62003128693204        1.92599009720312
C           -1.81590629348667        2.14943491458415        2.77655855189887
H           -3.19338290463240        3.02631400867802        1.41573758982456
C           -3.23494265957510        0.91508343744428        1.11291299026622
H           -2.58566904413977        1.99375205786727        3.52861004604371
H           -1.11120315857173        1.32459452668854        2.83416822090717
H           -1.29488563892189        3.07970892265582        3.00072931045299
H           -4.16683070626836        0.91015141942304        1.67496349458799
H           -3.46110852370163        0.81334825588552        0.05568814730818
H           -2.64398990636889        0.06203703105486        1.42268851322994
C            3.06238649683893       -2.66752613156732       -1.16531457179206
C            3.66007567804346       -0.75351172440449       -2.69981294554288
H            4.88878705646487       -1.58249907592761       -1.19411952188474
H            2.02537625177745       -2.54684354867757       -1.45103259198327
H            3.51788165206135       -3.41044154441903       -1.81729096443289
H            3.07987388856413       -3.02964988241067       -0.14332067737359
H            2.62215206123613       -0.51477945064246       -2.90575114302152
H            4.25656199412291        0.15214655307243       -2.80564133144204
H            3.99931684474252       -1.47852431802717       -3.43571316592496
