87
 energy: -124.575072473895 gnorm: 0.000696052733 xtb: 6.5.1 (b24c23e)
Si           0.36872681377773       -1.44284398477548        0.73238457779333
O           -1.08560527512588       -1.22262658468145       -0.27325952929341
C           -1.91508315633577       -2.09938136171622       -0.71090836676635
C           -3.00831545642676       -1.75297490719806       -1.52895361489921
H           -1.75766893834251       -3.14070925461873       -0.44852184276313
C           -3.19184924983395       -0.43176876017701       -1.99859259957820
C           -3.94458847131636       -2.73538013377605       -1.92136467110725
C           -4.25510621316985       -0.12083717808747       -2.81252627962466
H           -2.46601089044490        0.31753465486565       -1.72067168484075
C           -5.00663681525438       -2.40538817482840       -2.72844549139933
H           -3.80804649486394       -3.74842865626187       -1.57457382832551
C           -5.17287865640997       -1.09895199509546       -3.17935314938678
H           -4.37918237750758        0.88952397624874       -3.17734266455249
H           -5.71741443141444       -3.16436983224486       -3.02133756119251
H           -6.00603243446061       -0.84732964689733       -3.81772967035838
C           -1.82404623373733       -4.45694583332624        2.10532395571565
C           -1.10639341029633       -3.38285040565046        2.22659711169253
H           -1.37515402087235       -5.43642865021854        2.10736025399966
H           -2.89815275087848       -4.41382600346934        2.01033134614249
C           -0.40306402004062       -2.30043295701493        2.27648346218489
H           -0.15883071194584       -1.87120521176175        3.23790902415997
Cl           2.27417953392282       -1.13817875795700        1.86103351015378
Cl           0.81570650113767       -3.32277037188841       -0.24741058144709
O            1.21635490489352       -0.58676934128489       -0.69287413269807
O           -0.15713201043305        0.22738781003565        1.47207124553293
C            1.52815980878160        1.59919349870091       -0.17516621988295
C            0.08366059774448        1.81625705597193       -0.14097913719371
C           -1.99846654241446        1.57594352077202        0.99272209438028
C            3.40021598413931        0.24841419953859       -0.74409231645288
C            4.28094937205746        1.27607177472464       -0.37170642854472
C            2.36032548147840        2.68100921264643        0.04676438252210
C            3.72137157957132        2.49875194896098        0.01910816030065
C           -0.46710325159223        2.79320684212881       -0.95013093251156
C           -1.80864346739842        3.07587874802124       -0.86589123165597
C           -2.61001664812611        2.49231411455712        0.13221723558630
H            1.92818161194845        3.63598973602369        0.29997544894007
H            4.34517604791356        3.33490444130982        0.27450595290275
H            0.16159171381629        3.29153795133483       -1.67095779678783
H           -2.21629365392504        3.78518472058926       -1.56058688408394
C           -4.07408410442796        2.94748231004335        0.22266818521401
C           -2.64697459120440        1.05699676911656        2.25397881523752
N            2.06956705879038        0.41134666634444       -0.52448826468135
N           -0.71063305215341        1.18863723908601        0.76320069308915
C            3.84191313792051       -0.94993738874311       -1.54910863728120
C            5.81228850772604        1.17645762309678       -0.38099707030968
C            6.30110643854887       -0.16631295859894        0.18383270377595
C            6.35325361672489        1.42539796603954       -1.79886297168346
C            6.43444957985398        2.25773460197187        0.52306465830003
H            6.24164735816309       -0.97682376337235       -0.53064668391762
H            7.34310778555500       -0.07854809333030        0.48331777396912
H            5.71701604147615       -0.43057983953175        1.06145300500820
H            7.44029503179376        1.40196751507106       -1.77975558418959
H            6.01365426984131        0.68418032684975       -2.51580115920755
H            6.03602992158842        2.40414262865715       -2.15385834355548
H            5.99790128811558        2.22929623607548        1.51811305718904
H            7.50069640391043        2.06621433551184        0.61799996998810
H            6.33168604022275        3.25691557871300        0.10678480095170
C           -4.50713086389960        3.69742867840587       -1.05045618300995
C           -5.05061185071289        1.76526646497122        0.34988830375982
C           -4.23596812029425        3.94458138800831        1.38287800909774
H           -4.34514087384403        3.09010269609034       -1.93705333995296
H           -5.57062981901183        3.91502876893735       -0.98481987185107
H           -3.99624586784242        4.65058267591716       -1.16102447555969
H           -3.59632765158686        4.80970349782877        1.21913752191013
H           -5.26805105090760        4.28448022252432        1.42730787275477
H           -3.97917797886225        3.51994651540542        2.34778556225453
H           -4.78113097748770        0.98082206916787       -0.35348238554639
H           -5.08989240512182        1.33920985380983        1.34431306899575
H           -6.05678480570889        2.10099365334653        0.10866669549491
C            2.97241409410587       -1.12922755644614       -2.80123766261365
H            4.83968345406226       -0.70369492963121       -1.90887078996322
C            3.93789424224655       -2.26856889006849       -0.77540053392873
H            3.44779693215021       -1.86142955367414       -3.44921824028791
H            1.98375924965050       -1.49643278868746       -2.54790486596136
H            2.87835898093697       -0.19131373029046       -3.34850152139156
H            4.61256782212675       -2.94358423903413       -1.29732317144118
H            4.29892953896527       -2.11201838731281        0.23469842773890
H            2.96774850145013       -2.74417138274493       -0.71082761097288
C           -3.07324500653246       -0.40911963692319        2.15906922465747
C           -1.76315587417670        1.30479319850560        3.48382028293064
H           -3.54546919766743        1.64876523739333        2.41072328770345
H           -2.21019964595627       -1.06542877476092        2.16737446325874
H           -3.69922896460541       -0.65860330250587        3.01307960896852
H           -3.63765697498545       -0.59273772911650        1.24801692425416
H           -0.85898624479731        0.70689224550285        3.45618226540870
H           -1.48770922673522        2.35683369483734        3.54747858283085
H           -2.32344951602255        1.04010308404340        4.37732945590537
