87
 energy: -124.654664464394 gnorm: 0.000668542291 xtb: 6.5.1 (b24c23e)
Si          -0.15454760585320        1.10761238532017       -0.32746881162023
O           -1.59341043984614        0.59060250490544        0.25086358141152
C           -2.55823015818521        1.13744357198253        1.12341230144683
C           -3.02831001483474        2.50554170330332        0.67273818117532
H           -3.41107737896603        0.44237730781400        1.03683016484071
C           -3.21060297399083        2.72295671424351       -0.68841690244622
C           -3.31206173240789        3.54010884896502        1.55391377444461
C           -3.64066082792531        3.94750471653951       -1.16209839127374
H           -2.98509568833649        1.93302913274260       -1.38771309264892
C           -3.75241402636693        4.76369688184964        1.08000576544557
H           -3.17729022458954        3.41591931311221        2.61631234300121
C           -3.91547619601748        4.97471935785406       -0.27696626819668
H           -3.75531371580653        4.09745262182132       -2.22521788150123
H           -3.95883716787182        5.56010689986672        1.78009853025702
H           -4.24842636493697        5.93480326857985       -0.64271895864333
C           -2.05935042691823        1.08659441805045        2.57570142465795
C           -1.64295119074694       -0.25199237004658        2.92951052885386
H           -2.86713707043214        1.38905851442490        3.24564634122220
H           -1.21505917469313        1.77040720721504        2.68552575145925
C           -1.31382836273741       -1.36790619160530        3.20883013175010
H           -1.01589931728064       -2.33605490607744        3.47845449739499
Cl          -0.09061227293715        2.00827445464484       -2.18220418698646
Cl          -0.07562007535258        2.99271963556279        0.75808562072017
O            1.26394071098537        0.75387162705545        0.54237334172588
O            0.00146653964966       -0.44412650331844       -1.23266157860505
C            1.85897806294582       -1.53706143915174        0.37873037671775
C            0.54120805164055       -2.05977470484262        0.28462130797949
C           -1.65103888273324       -2.06338675578594       -0.78960842673415
C            3.51118585163625        0.23296277369131        0.20660481224963
C            4.55273280095403       -0.68418387589491        0.15779135350929
C            2.92741019781548       -2.43539272764637        0.56822960993877
C            4.21878978411500       -2.03577632193417        0.44159321311017
C            0.16734080587836       -3.22720912880160        0.97000333985381
C           -1.10206696267816       -3.70052543971269        0.86592009896919
C           -2.07858344482833       -3.12124152907623        0.01551745679095
H            2.70572466594281       -3.47742134737066        0.72474854408900
H            4.99039393966552       -2.77352868998805        0.55826332722182
H            0.86656249981837       -3.69347347690827        1.64356097320378
H           -1.35220827905308       -4.56647082245532        1.44952624040406
C           -3.51057173580571       -3.64963793671861        0.16840440102208
C           -2.24290113831217       -1.49322169742566       -2.07104541529530
N            2.21952895999249       -0.20022129452189        0.29846454329066
N           -0.39920326896321       -1.55755172394509       -0.57480747593766
C            3.75677062892500        1.72318413599157        0.27210862342655
C            6.01352067379446       -0.36249350592450       -0.17773767800780
C            6.11003955098082        0.42170978483439       -1.49823309862332
C            6.71972869664805        0.36048755318507        0.98217393931527
C            6.82640256152155       -1.64792091480794       -0.42268744150135
H            5.59486747177139        1.37321865901283       -1.48704559951773
H            7.15573485754025        0.61192400701089       -1.73085747293889
H            5.68555370846742       -0.17521863340465       -2.30295232829667
H            7.78110045189162        0.45020327216783        0.76077391017601
H            6.33540098233919        1.35626196340647        1.17219299985960
H            6.60891124225682       -0.22055065408889        1.89553277204734
H            6.35148911389646       -2.28224972013240       -1.16713556930232
H            7.80940372941589       -1.37286299045925       -0.79878480078193
H            6.97894088364154       -2.21379832604481        0.49294079718727
C           -3.62272051026840       -4.77672566338884        1.21204872255186
C           -4.37670098321648       -2.50489648262892        0.71711479215552
C           -4.08584767619635       -4.25013173267823       -1.12015801619877
H           -3.30025638721220       -4.45125135719348        2.19767997893521
H           -4.67013682975867       -5.06034114933510        1.29438857082172
H           -3.06784737448677       -5.66414293518704        0.91538144638958
H           -3.44984348103251       -5.06542866310658       -1.46086448539720
H           -5.07573660971790       -4.65580539281656       -0.92019632791423
H           -4.18132533439720       -3.52972959782657       -1.91898670917971
H           -4.00450091481140       -2.21011285331142        1.69711504248690
H           -4.35568841569588       -1.63413685834507        0.07913031554094
H           -5.40837857244725       -2.83394747311338        0.82330907348628
C            3.38021341769293        2.28538482707168        1.65026975397541
H            4.83030171783384        1.85603003874741        0.18493498412909
C            3.11243550016791        2.52556092122115       -0.86504917221709
H            3.74557998130724        3.30686556449809        1.72297942225840
H            2.30657358448057        2.30107215660973        1.79701780872367
H            3.84008323891687        1.69301757277745        2.43974412199690
H            3.71965434169902        3.40226295885484       -1.07984677205667
H            3.03322178901608        1.93221235377816       -1.77306153769351
H            2.12537674789758        2.87486906966057       -0.59224929714758
C           -1.95044837753307       -2.50127648050688       -3.19583300349308
C           -3.66671918888731       -0.94470987536476       -2.13069162397663
H           -1.62766946982706       -0.62244343818768       -2.30241431541930
H           -2.43627326488374       -3.45812609184701       -3.03852278255005
H           -2.28984842050130       -2.08814632477856       -4.14253849006595
H           -0.87826934655947       -2.67284570216502       -3.26736260143656
H           -4.44797745971384       -1.69313346872783       -2.06327444703037
H           -3.81351085411057       -0.20113366039309       -1.35167704841448
H           -3.78151215249368       -0.43907186943392       -3.08879994454297
