87
 energy: -124.668981191748 gnorm: 0.000609504003 xtb: 6.5.1 (b24c23e)
Si          -0.21881990420284        0.61295866483195        1.30116114689876
O            0.24828356994210        1.98585726552151        0.57248346350158
C            0.92779665353944        3.11962023792536        1.05978439042294
C            2.10964055347786        3.39726015019222        0.16662295573527
H            1.26514837954424        2.92597320032016        2.08394704799002
C            1.94593351336785        3.41721778409622       -1.21284901095277
C            3.36742425125999        3.62791021735371        0.70520256389169
C            3.02422272106445        3.66876881580324       -2.04142029723804
H            0.97192742079386        3.21401302107957       -1.63155334116402
C            4.44542859259218        3.88490323515990       -0.12446250864331
H            3.50040358130407        3.60010092628298        1.77690698748746
C            4.27587647310384        3.90740535810187       -1.49844716935556
H            2.88937947798745        3.67920054114382       -3.11330677633483
H            5.42182513116993        4.06349526140030        0.30255101010666
H            5.11833897680414        4.10596205806751       -2.14514667380996
C           -0.03097866727557        4.32634767281106        1.07309530979507
C           -1.14118660707925        4.08590662382613        1.96943075875002
H            0.52564914502622        5.20926533333248        1.39820706275092
H           -0.40779217282686        4.49768270431198        0.06139595385838
C           -2.05046041733819        3.84242655962632        2.70725283716815
H           -2.84336420799456        3.62735584633179        3.35874302198120
Cl           0.61788861929758        0.98065396428838        3.26285236081751
Cl          -2.15440194289174        0.44621648865696        2.05986172059076
O           -0.76035044424592        0.11204919997854       -0.36893537400558
O            0.78456714847330       -0.73759000881360        1.36032615837191
C           -1.50194201645175       -2.04821448043553       -0.00858248487304
C           -0.18877835627905       -2.54738122976677        0.18779492334903
C            2.21165723231207       -2.15915032874998        0.17531823516823
C           -2.96179078906071       -0.35703149173257       -0.92423688797822
C           -4.08794607891771       -1.15378638978677       -0.74877852946905
C           -2.63564693843852       -2.85986314956351        0.18167362509737
C           -3.88080592505848       -2.40566222904126       -0.12656180901774
C            0.08182491172315       -3.92345384300583        0.07706046895056
C            1.36155858126134       -4.38159194699887        0.00416418411311
C            2.47303077233536       -3.49387143193640       -0.06550507340496
H           -2.51633225434824       -3.82585104931507        0.64171902195776
H           -4.71339802387573       -3.04504871558057        0.10048212034014
H           -0.73708637671970       -4.61869368233520       -0.00032250478241
H            1.50971970180473       -5.44310437641618       -0.05821136528726
C            3.84759126237775       -4.08073475527869       -0.40625327589753
C            3.23153316436097       -1.04172749291769        0.11601443423143
N           -1.75813727142003       -0.78047048813582       -0.46250549069660
N            0.92331546969567       -1.75635988232898        0.43017167804893
C           -2.94398469435819        0.93936845241960       -1.70419527249708
C           -5.51530005809569       -0.75683070327081       -1.13882684232414
C           -6.55171905870009       -1.73767926373167       -0.56375311301019
C           -5.88088189119448        0.61994791989258       -0.55581970369336
C           -5.69237118043618       -0.80285795281298       -2.66598041048331
H           -6.48960773337576       -1.78196606620870        0.52052077304098
H           -7.54779003648276       -1.38816421508637       -0.82712848529229
H           -6.44280470337256       -2.73660190057905       -0.97906522767659
H           -6.96224652636725        0.73749969618661       -0.54465729544807
H           -5.51915991676375        0.69059728488238        0.46702383699325
H           -5.47263296639979        1.44898511191749       -1.12042431988826
H           -5.51620657570949       -1.81487214447255       -3.02552877862900
H           -6.71086506161369       -0.52024223708959       -2.92295626093338
H           -5.01556900780704       -0.14128643517187       -3.19593658171351
C            3.80978741335645       -5.61560458597591       -0.50752830759367
C            4.30878531745019       -3.58577873546313       -1.78754807958843
C            4.87885252177868       -3.76930779407273        0.69124320287673
H            3.14414231711086       -5.95248013830428       -1.29837600638345
H            4.80853622677458       -5.97332039339030       -0.74890694735682
H            3.51692435112863       -6.06995789844324        0.43573056223688
H            4.48093638065956       -4.06372420969069        1.66011398714541
H            5.78728127845222       -4.34009100502942        0.50932687792883
H            5.15329403450804       -2.72314470147462        0.74282175446778
H            3.59730753955611       -3.90697881799127       -2.54597590417064
H            4.39631994907131       -2.50718332793328       -1.85153711364312
H            5.27914843904389       -4.01707630082150       -2.02396407721807
C           -1.91213127814256        0.86513841119016       -2.83855783063730
H           -3.91642508959377        1.03297311982119       -2.18017425417654
C           -2.73132787605663        2.19745767094942       -0.85701901872660
H           -2.02570216958263        1.73627147243467       -3.48003253786750
H           -0.90010493459271        0.85541899711653       -2.44679690968421
H           -2.06746526714246       -0.02961525418502       -3.44003467783335
H           -2.99258922197716        3.07419568857574       -1.44674524909384
H           -3.35355607275948        2.17690402179771        0.03245078734776
H           -1.69862236329342        2.28421955322544       -0.54579621388497
C            2.76918048808423        0.02980714311387       -0.87758396173511
C            3.60068048670103       -0.43594507796811        1.47504633862025
H            4.14816859561718       -1.46277035650204       -0.29070992871949
H            1.86221418633062        0.52454281200158       -0.55189747798615
H            3.54390207740203        0.78643857968567       -0.98156170883417
H            2.58612191811578       -0.41639477129248       -1.85461640288339
H            2.79128151994467        0.14828313921326        1.89448798744304
H            3.85618114177668       -1.22036749065031        2.18373995456628
H            4.46310259075018        0.21605954491710        1.34932196844046
