87
 energy: -124.664538231704 gnorm: 0.000660238278 xtb: 6.5.1 (b24c23e)
Si           0.29434637021848       -0.70148091321227        1.17031210508391
O            0.33884018193252       -2.13911356008912        0.41239576147948
C            0.67938250325833       -2.57598092492784       -0.87783340727375
C            1.49024883580736       -3.84556302408815       -0.78160101835262
H            1.26119922490353       -1.80757160283087       -1.39317773078877
C            1.32820398887333       -4.70658961725983        0.29435640952768
C            2.39428279420926       -4.16813207912849       -1.78566049255052
C            2.06445473967451       -5.87615167105757        0.36500426781675
H            0.63777978269716       -4.44067701547547        1.07978085705360
C            3.12476653006911       -5.34058769463747       -1.71609498183990
H            2.52723913442034       -3.49544321009783       -2.62211857512513
C            2.96086834154162       -6.19702207880192       -0.64004195098600
H            1.93758820893760       -6.53841702762719        1.20854256951812
H            3.82732126466722       -5.58421833436069       -2.50011705549285
H            3.53529002884259       -7.11016036905416       -0.58420756177034
C           -0.60437083925064       -2.83372646435107       -1.69698508304669
C           -1.22949434372057       -1.58828527323406       -2.08204582291809
H           -0.34250585919176       -3.40220558289070       -2.59365629828123
H           -1.28897205110499       -3.42744788373776       -1.08727888481537
C           -1.70542504311447       -0.53611057556879       -2.39734342261022
H           -2.13129393884486        0.38197100899143       -2.67424942602743
Cl           1.79467142175163        0.33921904693834        2.23225336817005
Cl          -0.27856538802779       -1.74813773390713        2.94336469153001
O            0.75267498706481        0.15730310697372       -0.34814214782282
O           -1.18676649532372        0.10613268255995        1.31003054061337
C            0.06414614530843        2.34189635343024       -0.03937824183607
C           -1.31654160655680        1.99262956054513       -0.10504082548225
C           -3.22738604659314        0.55046118336406        0.29007884911497
C            2.38843622266535        1.82562252653514       -0.44691328354129
C            2.78294637679305        3.11817324310753       -0.12866305136937
C            0.44123396889206        3.67858208814129        0.16970279990019
C            1.75392347647088        4.03744075564570        0.19388406071475
C           -2.19868056428556        2.90247013841654       -0.71542549431761
C           -3.50000558431544        2.58062021222759       -0.94157750422208
C           -4.04810731744704        1.34542956339868       -0.50026475589162
H           -0.32302181697893        4.40008855664623        0.40774196823067
H            1.99160082150592        5.05474489633624        0.44282095880145
H           -1.79961896946994        3.83172994052831       -1.08772007491954
H           -4.11304050597497        3.29333142992661       -1.46087374748089
C           -5.48201539357867        1.00663288163419       -0.92556929275354
C           -3.76433460244735       -0.58915101241849        1.12608596738422
N            1.08604854748713        1.46402659461274       -0.29467272725651
N           -1.90431832297433        0.85711860320784        0.42109042163859
C            3.28488417441184        0.82534266409912       -1.14474311406177
C            4.23485496402996        3.60301818198734       -0.07454950416564
C            5.12656106635967        2.58605406492373        0.66279375634978
C            4.76264770898355        3.90561392701349       -1.48669009501245
C            4.34741943620642        4.91494027813233        0.72216707566141
H            5.50251596380460        1.80198587089019        0.01608636734428
H            5.99151398193607        3.09154233854768        1.08534224108417
H            4.57057999178508        2.12908839527205        1.47714418679737
H            5.78797333577062        4.26305359742256       -1.42359431847016
H            4.74696573649681        3.03802386670316       -2.13889137514021
H            4.15621461187553        4.68137486703604       -1.95015436189050
H            3.91734533830636        4.80401909117587        1.71423883332746
H            5.39885344702472        5.16941105921931        0.83610329587933
H            3.87399378501674        5.74883368297648        0.20995780739077
C           -5.94380532054335        1.91431548679442       -2.08178774628555
C           -5.57692773445101       -0.42848901186735       -1.47551558315242
C           -6.47379636054310        1.24464573751468        0.22486869139134
H           -5.24325700104559        1.88393333629418       -2.91286261569623
H           -6.90678289902911        1.56145905623059       -2.44400611651325
H           -6.08356759793737        2.94404380565563       -1.76317666157327
H           -6.41377200796771        2.28039774183392        0.55314389081725
H           -7.48692525367021        1.05243185447541       -0.12155764216375
H           -6.28689000840294        0.61271957553048        1.08650201769556
H           -4.76116786992988       -0.61482655448993       -2.17098207565962
H           -5.54602803329651       -1.19169701997725       -0.70816710192312
H           -6.51547219633496       -0.55074270752096       -2.01225651386229
C            2.66594621239437        0.47452045880485       -2.50693538093470
H            4.21480362987917        1.34355439111971       -1.36508437703216
C            3.66785743640551       -0.42523400874744       -0.35022718901999
H            3.32483461383137       -0.21051072323154       -3.03598414096992
H            1.69168495466424        0.00660218491393       -2.40351236520730
H            2.54927245445257        1.37506175395909       -3.10879021142897
H            4.42025684790948       -0.98214494586428       -0.90612067138621
H            4.07943824825406       -0.14868474982686        0.61543552739500
H            2.82408742853378       -1.07942579610900       -0.17715321358288
C           -3.21389157559489       -1.96625127032096        0.74981685783935
C           -3.60548431487312       -0.30712678215880        2.62775615903581
H           -4.83494738337895       -0.61781608312314        0.94525480800283
H           -3.80606462048780       -2.73030473939676        1.24892097047974
H           -3.27881318771902       -2.11544092203690       -0.32564860402797
H           -2.18592576886057       -2.08553734898363        1.06582424593328
H           -2.58658155929948       -0.46272880066977        2.96302177048537
H           -3.90605055939354        0.71386853540486        2.85684035583749
H           -4.24792832436538       -0.98831506401525        3.18067038260950
