87
 energy: -124.663264101156 gnorm: 0.000512647793 xtb: 6.5.1 (b24c23e)
Si           0.39820231973194       -0.55846167939295        0.45624116660367
O            1.17541430771838       -1.76056382995780        1.21359579680902
C            1.39561989978967       -3.11022692610307        0.87524064799289
C            2.56488423422184       -3.22431268367151       -0.06810629575536
H            0.49650926053529       -3.52146165857723        0.40282195389398
C            3.71736388203305       -2.48965535299920        0.17831166877221
C            2.50552212566692       -4.04769760230892       -1.18312170302867
C            4.79718067003711       -2.57549713232319       -0.68173359346770
H            3.75314864594044       -1.83782766723507        1.03854542000432
C            3.58858263177945       -4.13626179915145       -2.04007735320825
H            1.60445426123734       -4.60777679716709       -1.38522906034996
C            4.73536442136901       -3.40111243323495       -1.79148533160082
H            5.68771514161411       -1.99648425382889       -0.48453535299546
H            3.53433619796074       -4.77605633112245       -2.90882461888266
H            5.57796706549632       -3.46845585446875       -2.46439968275645
C            1.68463513421802       -3.87344460182315        2.18083601347342
C            0.52066182961268       -3.89448336825395        3.03891807390431
H            1.98391523242484       -4.89546435919596        1.93353856464764
H            2.50669875671080       -3.37539943092753        2.70015074341703
C           -0.46149095425021       -3.88686244365080        3.72216846599481
H           -1.31079572147532       -3.88426102779724        4.33728098828246
Cl           1.23242387822153        0.72636410445464        1.99630888438798
Cl          -0.24540767205009       -1.77064259150853       -1.25684024192303
O            0.67043037888598        0.59739672200534       -0.77567494550068
O           -1.15259442784858       -0.17827703672379        1.02183520350173
C           -0.75906387932972        2.33795244742781       -0.25055941884189
C           -1.92609678143131        1.51657162397742       -0.39379945146188
C           -3.28413285360420       -0.43228282762671        0.10720891389091
C            1.62411120827140        2.71497144359476       -0.47731413099233
C            1.50497870113892        4.02207468981627       -0.02776896979026
C           -0.90491261302277        3.70554903882655        0.01670477974471
C            0.18837022999940        4.50274101126842        0.18777039774150
C           -3.02270827478681        2.03283868026544       -1.09952737007768
C           -4.13078580795959        1.27506755116828       -1.33218140735070
C           -4.28229683102578       -0.01745186751907       -0.76323950267565
H           -1.89575640739845        4.09503622955511        0.18620774485135
H            0.02645056004468        5.52424670215652        0.47822599668045
H           -2.93121424362737        3.01246089520600       -1.54009928157209
H           -4.90834369800355        1.69147346470898       -1.94499069030224
C           -5.51077949180087       -0.84388578534971       -1.15387645204016
C           -3.46802689001067       -1.54153883116658        1.11908406344055
N            0.52594001992351        1.91869509131771       -0.49420947745319
N           -2.13009367835441        0.28379180477129        0.19307705828319
C            2.86256130418734        2.15655189092681       -1.14117480223765
C            2.68553306258518        4.94506192342094        0.28148172547061
C            3.76182977294446        4.18635830645820        1.08014156901378
C            3.25767981460209        5.56775786617882       -1.00206218568894
C            2.24237922293901        6.11499715043318        1.17720884723229
H            4.42912955385055        3.60693351154484        0.45334065448932
H            4.37546896193896        4.89268345454288        1.63456122727478
H            3.28724529947635        3.51369144149725        1.79016529994676
H            4.08021032078674        6.23301832088082       -0.74892695662479
H            3.62660873406440        4.82585250547178       -1.70316150473676
H            2.48837860001469        6.14902146927824       -1.50666493616672
H            1.74372061398755        5.74959937252973        2.07107040763303
H            3.12080949137932        6.67771631107191        1.48513327034353
H            1.58912452010173        6.80813371513211        0.65316337372860
C           -6.17354895668122       -0.27498155506725       -2.42178025526892
C           -5.10514123297151       -2.28298129905704       -1.51528902728935
C           -6.58360399918630       -0.80921699268463       -0.05327352070613
H           -5.44992986074963       -0.16409200282664       -3.22538349483611
H           -6.94445623860350       -0.96520207940662       -2.75720911733558
H           -6.65909014382814        0.67974464670239       -2.23590657299636
H           -6.85681265784870        0.22181205480269        0.16261802128156
H           -7.47234227089087       -1.33543066836271       -0.39471998406481
H           -6.25791646773500       -1.26873185392092        0.87406570016947
H           -4.27889198110469       -2.26261888773605       -2.22198055022855
H           -4.80182297007231       -2.87716958725246       -0.66290578204999
H           -5.94487920592251       -2.79095727160748       -1.98496323625833
C            2.53694360688654        1.81802768835487       -2.60403406241638
H            3.59036403521582        2.96296183148144       -1.16766959121998
C            3.52899312509743        0.96872631714767       -0.44282769109090
H            3.45597342793419        1.54927910443243       -3.11976990085901
H            1.85120533766088        0.97932132424901       -2.67298744791211
H            2.09506888520256        2.67718757954458       -3.10680789642440
H            4.55489290127808        0.87656405930410       -0.79426264687298
H            3.53342943812797        1.11117260646271        0.63350706158015
H            3.01584642949329        0.03924479760428       -0.66643169635431
C           -2.50260582535822       -2.72453312722628        1.00803926053310
C           -3.44728442220228       -0.94465190280390        2.53464529331346
H           -4.47134693772931       -1.93142625308765        0.97012091607871
H           -1.55377410052394       -2.50711129503371        1.48637317716573
H           -2.93493547367947       -3.58970617154739        1.50708569158082
H           -2.31796965086009       -2.97615683318763       -0.03238121507597
H           -2.45726977186112       -0.58752228235716        2.79966633775333
H           -4.15412990971037       -0.11982369547539        2.61208703851398
H           -3.73543315083063       -1.71474081824596        3.24624198733917
