87
 energy: -124.667703736114 gnorm: 0.000564583784 xtb: 6.5.1 (b24c23e)
Si           0.18375949389801       -1.23023051036736       -0.27602689334168
O            1.55239929134884       -0.71192890952118        0.45471859006432
C            2.37119346354075       -1.34625324954974        1.40780940163103
C            3.01101520578928       -2.61804048809852        0.90758283483542
H            1.76425366943785       -1.57719806542956        2.29263008301907
C            3.38471549500079       -2.76079393672607       -0.41971938777676
C            3.26549325586183       -3.65196466468653        1.79966175149297
C            3.98372720572992       -3.92936856108733       -0.85564095720986
H            3.18210824581858       -1.96729453094345       -1.12073586718992
C            3.87177262941441       -4.81555233786349        1.36541165445352
H            2.96810616243651       -3.54928940320361        2.83352799911372
C            4.23014029005204       -4.95836088409339        0.03527663005620
H            4.25276082257416       -4.03439023407878       -1.89622930084874
H            4.05474061951593       -5.61810265539203        2.06493441323930
H            4.69300957509496       -5.87276176534629       -0.30588060702376
C            3.48196112524885       -0.35068693686859        1.79927227300293
C            2.96489732674086        0.75102516048090        2.57843657221046
H            4.23811027395368       -0.88226054551622        2.38336062419946
H            3.94539070345773        0.02356129344771        0.88287548317278
C            2.50681225514909        1.64076284014977        3.23471458931045
H            2.12460504541597        2.41441484368335        3.83042619197920
Cl           0.24774659155984       -2.08979189229185       -2.15075957024484
Cl           0.06753022317494       -3.14872616688867        0.75373838400810
O           -1.29991350363718       -0.97117574088639        0.49996450879721
O            0.06924364528752        0.33567319325647       -1.15267497522342
C           -1.82171123479358        1.32898399215059        0.62505295210865
C           -0.50055530499606        1.83860850533841        0.51416958330001
C            1.48319811994995        2.16761963684699       -0.81952340822294
C           -3.52628142373243       -0.34884677735762        0.21442301236145
C           -4.54066469778569        0.58714003542352        0.36873892141155
C           -2.85268994756672        2.19825822583272        1.03369646681994
C           -4.15880591650548        1.84957321221603        0.89683414555715
C           -0.06327456825781        2.88701928422895        1.34514346889996
C            1.13769033142570        3.48920790747706        1.13726372439824
C            1.94211364157807        3.18268372382901        0.01240730340818
H           -2.59495271932910        3.18716228606936        1.37327344584475
H           -4.90682434713761        2.56182136813945        1.19164917143405
H           -0.66660517735246        3.16127963661830        2.19444082372388
H            1.44587083398705        4.24665497860314        1.83294971967451
C            3.22828297344556        3.99052867274791       -0.19393450740959
C            2.05081283949833        1.87913915970005       -2.19301105858794
N           -2.22382035656086        0.03251984598246        0.34627606358250
N            0.37243044312868        1.46575245675820       -0.47598587072565
C           -3.80011075234696       -1.82140893131882        0.01211745422714
C           -6.01550594568481        0.36633115304921        0.01974334317185
C           -6.15877892009024       -0.10585862941033       -1.43813452337063
C           -6.70004846843913       -0.58978665109710        1.01191470336540
C           -6.81399207320402        1.68096415823053        0.09194810697689
H           -5.57696684699357       -0.98768384189748       -1.67516302023766
H           -7.20371109321304       -0.32440072006210       -1.64805922450407
H           -5.83603846406454        0.68978336576571       -2.10689255816447
H           -7.77373738413951       -0.58689433936786        0.83601530122716
H           -6.35527627762292       -1.61440584726849        0.93561498222743
H           -6.52048032296301       -0.24928228627548        2.02970616893243
H           -6.35234891794330        2.46123536756214       -0.50831659394900
H           -7.81152072064891        1.50395316846657       -0.30450056514089
H           -6.92889923964182        2.03005117065984        1.11515627124290
C            3.58703359271242        4.80908122184022        1.05940293476375
C            4.44194370480572        3.07662054070514       -0.42647074826854
C            3.04862572516921        5.00950114899591       -1.33228029308180
H            3.66447751304166        4.16773425851360        1.93386397684268
H            4.55569148110420        5.27948108700043        0.90485086371271
H            2.87073402278410        5.60517887720405        1.24651868099519
H            2.20471614994215        5.66025373812633       -1.11157558916341
H            3.94229910778967        5.62407494272522       -1.41638506222509
H            2.86813878069791        4.54763614542982       -2.29709566644892
H            4.52836373832778        2.38124753183275        0.40549420180746
H            4.39454197754940        2.50917257444743       -1.34631676846908
H            5.34754107346713        3.67919187001795       -0.45967524997487
C           -3.52117850136675       -2.60186891980076        1.30496519716375
H           -4.86554412307282       -1.91494075994018       -0.17365093225089
C           -3.07987641814150       -2.44971544793719       -1.18700884618114
H           -3.88103181733962       -3.62072594045136        1.18526382371555
H           -2.45939311484646       -2.64319942399895        1.52086762919482
H           -4.03955983643839       -2.14414909295753        2.14574668746447
H           -3.68639136838715       -3.25723053381560       -1.59104839130046
H           -2.91144088700043       -1.72088442214349       -1.97671656611006
H           -2.12712096472393       -2.87345829278201       -0.89595504124893
C            2.76308285573559        0.53293205828599       -2.33723960872161
C            0.95574048695259        2.03026885271346       -3.25782353393096
H            2.78329981244043        2.65657408237952       -2.39672712817331
H            2.04730977055180       -0.27658098794860       -2.41320933534116
H            3.36525885962539        0.53928508498005       -3.24407838015143
H            3.41593906682692        0.35328746966365       -1.48705967098009
H            0.22856544678816        1.22777821701449       -3.18871947174701
H            0.44470256399290        2.98578386924830       -3.14774160315877
H            1.41217212715236        1.99282611082506       -4.24406633803904
