87
 energy: -124.668979272068 gnorm: 0.000699162045 xtb: 6.5.1 (b24c23e)
Si          -0.06477812369230       -1.74443364354883       -0.18393772755856
O            1.36860890250609       -1.31969064863936        0.46918266023237
C            2.02445558200032       -1.65208356356550        1.67401375755272
C            1.98621895066676       -0.40828146067081        2.53472251734681
H            1.46410825453956       -2.45142012522621        2.17642429806735
C            3.08684250844436        0.40102873027306        2.77478131117525
C            0.74849829463083       -0.02610633363737        3.04315769136768
C            2.95324985971661        1.56380912788657        3.51610455517329
H            4.06106813498771        0.13012883929034        2.39792477894324
C            0.61309931407454        1.13936503639526        3.77306642939992
H           -0.10922755599267       -0.65644306425498        2.85977072963797
C            1.71858802316504        1.93893170114177        4.01321657555859
H            3.82107227920195        2.17942211800481        3.70703459227006
H           -0.35514897730732        1.42171554975911        4.16068092482647
H            1.61849758878034        2.84773075364238        4.58884384080281
C            3.42730194499068       -2.17434434556627        1.34273653739048
C            3.31561805301655       -3.38312647213840        0.55123711710257
H            3.96139157768531       -2.38476388052014        2.27276430636350
H            3.97516415110544       -1.42289796766137        0.76726295834770
C            3.15932473129740       -4.35202703911452       -0.13237006522063
H            3.03435042167628       -5.21176327896764       -0.71900714412370
Cl          -0.22606200473757       -3.02970426836440       -1.78187080670660
Cl          -0.57176874644848       -3.28968652411250        1.25858054491718
O           -1.45132705450388       -0.99993163796224        0.44735388501108
O            0.14665109021615       -0.43127694858160       -1.40645808158148
C           -1.31896484303873        1.34031482270489        0.15684160027072
C            0.08258389852702        1.44225554645038       -0.04979639744907
C            2.03596055684690        0.93781817466782       -1.37499299653343
C           -3.43064474240399        0.14954033535138        0.01726347045364
C           -4.14850205306046        1.33656023657925        0.05734328451672
C           -2.05588939934272        2.50589956021154        0.44253938705513
C           -3.41413186171045        2.50730078664549        0.38999290195147
C            0.83641856616822        2.43013399406534        0.60927783447930
C            2.15766794566660        2.59853504011928        0.33597324845582
C            2.80076723359851        1.88709440957620       -0.70608892356613
H           -1.52488526738016        3.42527904139455        0.62298792617937
H           -3.92718908349844        3.42876851288178        0.59294111677186
H            0.37417020100748        2.99913494409347        1.39790242684699
H            2.69876272312501        3.31765525503251        0.92154443441573
C            4.26389985986241        2.22327611116665       -1.01421431205154
C            2.46254081056728        0.24635442742291       -2.65202932229202
N           -2.06864177621438        0.17577068348120        0.09123747643409
N            0.76940745498829        0.68033175340016       -0.95992922391559
C           -4.08678203761555       -1.21203855567293       -0.01543383859549
C           -5.64612597646795        1.47855645923274       -0.23165287313382
C           -5.97079508191399        0.93164866957749       -1.63350864074981
C           -6.50762413075064        0.82311147789574        0.86207161162221
C           -6.07944139920447        2.95548801799876       -0.26707281341180
H           -5.63196426811083       -0.08403264199972       -1.79697187725135
H           -7.04602453488782        0.96052092596247       -1.79624589493666
H           -5.49550384957352        1.56036598367399       -2.38385386661179
H           -7.54869561708741        1.10639998473143        0.72074829790735
H           -6.45877315960898       -0.25947245950569        0.86436990296499
H           -6.18842872635990        1.17797321555055        1.83998869780647
H           -5.47972622671925        3.53195397814775       -0.96708852024746
H           -7.11418708803182        3.00556331122449       -0.59948767489378
H           -6.03109388698328        3.41446334559373        0.71731281572263
C            4.87814860685967        3.13334198903863        0.06488995938357
C            5.14817318401744        0.96595193221664       -1.02317725672467
C            4.36753149751889        3.00920150497710       -2.33333495940162
H            4.78144485728445        2.69527645852897        1.05517746127615
H            5.93944607962748        3.25304402412744       -0.14343834809184
H            4.43263894303605        4.12505060070123        0.06093645777185
H            3.72051663828844        3.88315815620843       -2.28962359666856
H            5.39130235029015        3.34845556882789       -2.47620561033424
H            4.08526472178789        2.42865453915977       -3.20475272077140
H            5.15757878356232        0.52794880595395       -0.02726983126242
H            4.82488399963064        0.20407710100515       -1.71959525448079
H            6.16939896697653        1.24239048069287       -1.27833087459403
C           -4.02192809444585       -1.88324286314444        1.36438194184795
H           -5.13886893713999       -1.04570057795310       -0.22476300005494
C           -3.55489379540812       -2.14018372565451       -1.11463632276696
H           -4.63713714936555       -2.77937010581485        1.35051609452571
H           -3.00849889706743       -2.17438213108585        1.61688311519276
H           -4.40009020634606       -1.21172106742049        2.13262950467404
H           -4.35030607763720       -2.80448330847996       -1.44508402822737
H           -3.20244521613328       -1.57517760464617       -1.97484215847834
H           -2.74276104326429       -2.75840298140922       -0.75378344847082
C            2.69801116930728       -1.26428880793373       -2.54268770121444
C            1.45586475105098        0.55821504926511       -3.76803541635381
H            3.40343905816764        0.69942869135630       -2.95374984494119
H            1.76978746448558       -1.81175503961211       -2.64770008795412
H            3.36975472236870       -1.58359496691284       -3.33715387200094
H            3.13809748414217       -1.53177772833646       -1.58704835527407
H            0.50063332657809        0.08018487544752       -3.57539706252948
H            1.30517940069271        1.63323082272751       -3.85986353309865
H            1.84266197072274        0.17962130666161       -4.71104969548278
