87
 energy: -124.667703256602 gnorm: 0.000885624297 xtb: 6.5.1 (b24c23e)
Si           0.36650209307174       -1.20396816721089       -0.25084144525973
O            1.62662297173707       -0.54778750803899        0.56106051699489
C            2.41153599607753       -1.07662467986366        1.60247139620052
C            3.21501049801089       -2.29005277978680        1.20228308423987
H            1.75163680936265       -1.34776007406305        2.43642991335825
C            3.68547672629508       -2.45137249130936       -0.09144292586379
C            3.52326849389009       -3.24749059583834        2.16074385562012
C            4.43452201165760       -3.56468566532124       -0.42974401786114
H            3.44390799889261       -1.71895053015335       -0.84429818136246
C            4.27914461862265       -4.35446303685650        1.82452428489653
H            3.15253038805851       -3.13068286271933        3.16917673632446
C            4.73460331317512       -4.51753819907990        0.52667910449202
H            4.77866524190539       -3.68610963007265       -1.44615241380584
H            4.50443874945318       -5.09803386182494        2.57506837807655
H            5.31500784909045       -5.38916150826051        0.26181574563518
C            3.37910137580498        0.03290807037880        2.06229871856639
C            2.68497139599305        1.09433323164537        2.75511209834738
H            4.12410160995753       -0.40737788335105        2.73062943464823
H            3.88924494401598        0.43103756945577        1.18145127017556
C            2.08178412382081        1.94289577788677        3.34544857517512
H            1.56981113476525        2.68792471469416        3.87671699770679
Cl           0.64278668449627       -2.11341111742875       -2.08204859518522
Cl           0.33310772822909       -3.08924586007325        0.84235806233987
O           -1.19314080030412       -1.04847349034441        0.39518452301995
O            0.19636049105530        0.31879307936130       -1.19287348414803
C           -1.91514233325411        1.19965104693140        0.38011040261192
C           -0.63594244168590        1.81682912601575        0.36312714842645
C            1.42283569655924        2.27286507460928       -0.80899024240692
C           -3.43117503403558       -0.63149132855625       -0.10361024519533
C           -4.52793274409087        0.22063425097828       -0.08552110812611
C           -3.04648172862356        1.99173708949982        0.65917537859207
C           -4.30136879722709        1.52911167024496        0.41959567109944
C           -0.36224852292468        2.92356232872453        1.18782770116344
C            0.79814182313965        3.62025624947197        1.05957813315472
C            1.72053914573074        3.34925355146566        0.01939067662279
H           -2.90201309119392        3.00997887673736        0.97857407304217
H           -5.12919010407935        2.18509000799143        0.61479542435857
H           -1.05846825716209        3.17030100007270        1.97204957775603
H            0.98047616397717        4.42201290130332        1.74990753003636
C            2.94844963996132        4.25765173180399       -0.10783080649073
C            2.13219923757045        1.99112734538454       -2.11645570976571
N           -2.18169777755825       -0.13554677903887        0.12297443528618
N            0.34749895513688        1.49012822429493       -0.53555473602426
C           -3.56666593929710       -2.12943075995661       -0.25093120962874
C           -5.93899900813036       -0.13407205719074       -0.56446768291612
C           -5.89542671229350       -0.67644374446765       -2.00396900068655
C           -6.64699833271807       -1.10171360620975        0.39965668202937
C           -6.83727895221350        1.11469333184515       -0.63556232687402
H           -5.24358676465975       -1.53179532124777       -2.13243428030985
H           -6.89758062612198       -0.96651177142959       -2.31337762354366
H           -5.54555101626387        0.10753317544673       -2.67337275492989
H           -7.69773955096341       -1.17979293944583        0.12760564531991
H           -6.22953681258980       -2.10222895780259        0.39412847087264
H           -6.58556238454951       -0.71655049709648        1.41567298242904
H           -6.37620758137913        1.90387580063612       -1.22449224017315
H           -7.77310438951237        0.84331275986942       -1.11938490491029
H           -7.08208764023376        1.49515849881525        0.35297145596370
C            3.11870962598395        5.15353266538641        1.13230162100712
C            4.24966978751583        3.44359389138937       -0.18567912628016
C            2.79352416897532        5.21294074931199       -1.30384840887306
H            3.16655316325210        4.55754606633634        2.04038015641344
H            4.05551065485812        5.69943793145592        1.04339774265472
H            2.32406855735573        5.89088265139008        1.21510265206106
H            1.87130113347096        5.78152713504644       -1.20134228188049
H            3.62663079845708        5.91221223864708       -1.32215645578884
H            2.76497914778508        4.70314532420765       -2.26083646076231
H            4.32770147981426        2.81305856727220        0.69730620620102
H            4.32301294914217        2.81557684157216       -1.06347417793080
H            5.10076188457923        4.12171957880212       -0.19415033677135
C           -3.33822488787392       -2.82137285913460        1.10103101750462
H           -4.60133734300203       -2.32103896324788       -0.51751071973687
C           -2.69737143779515       -2.74992898230177       -1.35117396582716
H           -3.60763409491993       -3.87062921605323        1.00955208197331
H           -2.29819447607808       -2.76582607691939        1.40280150915462
H           -3.95907700505750       -2.36679608697337        1.87119801331418
H           -3.20116358661881       -3.62213825849061       -1.76207272663247
H           -2.51780784173990       -2.04610559238156       -2.16092041260954
H           -1.74342930066589       -3.07995960903467       -0.95950288331996
C            2.95238083165755        0.70023492866714       -2.15262377400547
C            1.12798726426567        2.02777186630911       -3.27658161753893
H            2.82075366558367        2.81614073974034       -2.28186229735299
H            2.30918284237070       -0.16250541811692       -2.27732191480485
H            3.64128864688030        0.73410129134824       -2.99484737087143
H            3.52702195058334        0.58690835320654       -1.23716969210715
H            0.45352783769260        1.17850812584651       -3.23745167825214
H            0.54583850979949        2.94788311156622       -3.24971500057132
H            1.67131150728035        1.98843222361187       -4.21766884741738
