87
 energy: -124.654725088982 gnorm: 0.000564769519 xtb: 6.5.1 (b24c23e)
Si          -0.15299059131447        1.15291952377255       -0.20725725330605
O           -1.59904202833653        0.61944653078500        0.33700723037454
C           -2.55368713802532        1.11704093610681        1.24923340178123
C           -2.99687306289190        2.52249159850582        0.89703836354441
H           -3.41805350652745        0.44393508505813        1.11332013794475
C           -3.20878215767020        2.82434350987026       -0.44358183035296
C           -3.21950498936742        3.51258299510662        1.84413065546183
C           -3.61132506339603        4.08707000601101       -0.83375103183278
H           -3.02895864865552        2.06835616088715       -1.19196836786713
C           -3.63117635348083        4.77514483092652        1.45381514078672
H           -3.05762350142413        3.32352582279821        2.89300831189255
C           -3.82608907315031        5.06936095573575        0.11665872767179
H           -3.75147386278915        4.30194983188619       -1.88254364163952
H           -3.78876968222205        5.53673014347334        2.20339774869979
H           -4.13642504611193        6.05935411637920       -0.18317768829159
C           -2.05518000940913        0.95477823473393        2.69293457853250
C           -1.67603639080104       -0.41550729060798        2.95552493472516
H           -2.85421357209026        1.23406619472268        3.38314829586970
H           -1.19220960485953        1.60629055658044        2.84590377435692
C           -1.37645789398286       -1.55568281139248        3.16088563154056
H           -1.10500424783664       -2.54687601572430        3.36700548349420
Cl          -0.09772711679367        2.19129241546166       -1.99010463336287
Cl          -0.02325101460126        2.94427942754123        1.01897272583013
O            1.26398520767964        0.70907593439393        0.62073949267017
O           -0.02935844440938       -0.33041046757242       -1.22892248850787
C            1.77579763903302       -1.58844637803751        0.32072871881750
C            0.44359225623474       -2.06125145208587        0.17685845110943
C           -1.72417193029266       -1.94467913069556       -0.94329090817887
C            3.49046726732721        0.12836141725356        0.25309483345305
C            4.50024894776259       -0.82146064689220        0.17548861916016
C            2.80957815989657       -2.53240781693143        0.47798365079105
C            4.11589462069456       -2.17224299618542        0.39130132237402
C            0.02297715548351       -3.24985704409094        0.79372997124679
C           -1.24580952496654       -3.70017907872358        0.61270460310638
C           -2.17794989711614       -3.06750927850066       -0.24937711724372
H            2.54952328996517       -3.57257891391360        0.57771174729492
H            4.85990495246552       -2.94106543983282        0.48354323759061
H            0.68814760824305       -3.75744124785941        1.47200724805881
H           -1.53129043174184       -4.58666043516433        1.14651151347670
C           -3.60184085710258       -3.63924854588648       -0.23552990021427
C           -2.29772769027561       -1.21990785255214       -2.15300689214671
N            2.18393750770303       -0.26306709410224        0.31677081954812
N           -0.46737029577889       -1.48008991403841       -0.66448632346733
C            3.78298677013661        1.60617171907259        0.37785028330625
C            5.97544334045927       -0.53440226386478       -0.12580997330366
C            6.11530804094935        0.27802184004244       -1.42523968215317
C            6.68100669059169        0.14023279027855        1.06361901719450
C            6.75851113395889       -1.83471721941507       -0.38693761367421
H            5.58606961845450        1.22200503617920       -1.41584963117209
H            7.16698127828371        0.48481333989817       -1.61236635789686
H            5.73018422385173       -0.30735250157102       -2.25782687187955
H            7.75178201693423        0.17917615910639        0.87482738581463
H            6.34250490699264        1.15216984821843        1.25462213049776
H            6.51449297613215       -0.44483988001286        1.96589046608351
H            6.28522253933220       -2.43647814211181       -1.15896916842365
H            7.75671859055468       -1.57617052833303       -0.73347976902837
H            6.87374960395193       -2.42784543458668        0.51687889736946
C           -3.73623851369750       -4.90060713746473        0.63896229626175
C           -4.52722957829688       -2.59731319205819        0.41224715910476
C           -4.08822106144307       -4.08074219892845       -1.62164479487517
H           -3.51103125402973       -4.70118566799625        1.68350125146261
H           -4.77083756838092       -5.23512048026175        0.59419080759329
H           -3.11357323957701       -5.71529801151188        0.27579491825184
H           -3.42399144592606       -4.84988880004804       -2.01254715042808
H           -5.08568158797818       -4.50805574074052       -1.53781151584692
H           -4.13489035906982       -3.27288963303122       -2.33559514878769
H           -4.23258314672166       -2.45071902961611        1.44995806078410
H           -4.47666414367377       -1.63881364823563       -0.08202478307580
H           -5.55708022014792       -2.94725112368574        0.39172015991660
C            3.44599874531103        2.11622139072822        1.78617117643729
H            4.85789513599651        1.71252529552796        0.27454967765556
C            3.14186848356804        2.47662269000827       -0.71042826341755
H            3.83332793352653        3.12624578230791        1.89498528194769
H            2.37579162816908        2.14622043976644        1.95496870678379
H            3.90863315159754        1.48131951684988        2.53998027428640
H            3.78226314835089        3.33181709515538       -0.91558982637378
H            3.00702874859231        1.92038769973236       -1.63529746129430
H            2.18079247243398        2.86058301856837       -0.39406867822877
C           -1.93809383485586       -2.04842079707371       -3.39878675440042
C           -3.73342113876152       -0.69941855748794       -2.18056599454190
H           -1.70514602979912       -0.30877535381727       -2.24176636794927
H           -2.36865126262829       -3.04407166137779       -3.38168126982375
H           -2.28927916115503       -1.53003948164840       -4.28752460061757
H           -0.85697270327866       -2.14772358905315       -3.47168329971761
H           -4.50180103338359       -1.46206796874120       -2.22807822258075
H           -3.91499859632877       -0.06206657960608       -1.31868398015066
H           -3.83526028410489       -0.07854741645553       -3.07004406573068
