87
 energy: -124.660846630243 gnorm: 0.000940334048 xtb: 6.5.1 (b24c23e)
Si          -0.43727143120749        0.79841355416068        1.42822170613131
O            0.34761078724199        2.16736711188494        1.01534237792177
C            0.55655112289334        2.84181520358069       -0.20985632420156
C            1.77981231388238        2.27734038030074       -0.89851846419357
H           -0.31092106721882        2.68320664597432       -0.85820735900027
C            3.05894204387712        2.75439840227115       -0.63986772014569
C            1.63180721336097        1.22581140148753       -1.79560506663259
C            4.15542441095991        2.21662200650208       -1.29255097752890
H            3.20915313702777        3.54794617448600        0.07413340002890
C            2.72733073382567        0.67510991558962       -2.43509444078259
H            0.64641242801588        0.83435714737773       -1.99608982539150
C            3.99385334715733        1.18136908280742       -2.19748154010469
H            5.14221487597253        2.60713495315827       -1.09065876435407
H            2.58932391114208       -0.14453197520784       -3.12627504318642
H            4.84977407530021        0.77349930860105       -2.71560283295000
C            0.67637392939723        4.34225333749000        0.10178376839365
C           -0.61957709643764        4.90503945141438        0.41520377572208
H            1.10370820000806        4.85998513008991       -0.76102461424971
H            1.32854548083737        4.47022256687172        0.96821385471940
C           -1.70495041100604        5.34027682832320        0.66817793893838
H           -2.64798233603576        5.73157522019597        0.90706606517137
Cl           0.19396274397711        1.14322349677143        3.43188627241893
Cl          -2.36495272127318        0.25730289465767        2.12489022450715
O           -1.00552980832406        0.60068993719582       -0.27602735961804
O            0.47348027592509       -0.63028010954007        1.42828334644127
C           -1.25262588029040       -1.66447741404412       -0.63010960052468
C            0.15567552124361       -1.88914774159476       -0.54379417974389
C            2.33612053957211       -1.67316602674742        0.50075342184397
C           -3.14226989042720       -0.17293313945945       -0.83356494235830
C           -4.02948098707402       -1.23840910998267       -0.91644880704498
C           -2.11806595895501       -2.73472288366651       -0.90355605760968
C           -3.46436641412822       -2.53673045976604       -0.96869824631703
C            0.73525123648105       -2.79830456263350       -1.44296223785897
C            2.07436451641748       -3.03482299228345       -1.44842299888801
C            2.93455061680462       -2.45842953079941       -0.47403174317584
H           -1.70824280253706       -3.73006985740636       -0.95646956606758
H           -4.09606680362411       -3.39732632692721       -1.08907323346126
H            0.10129192777851       -3.24946946652224       -2.18916483987896
H            2.46541947658848       -3.69160620982566       -2.20220180316330
C            4.42788790177027       -2.80403184047050       -0.54741093935032
C            3.06051364446736       -1.23443185128048        1.75316810301566
N           -1.82822254121019       -0.42094199913879       -0.59418429212648
N            1.01133195902066       -1.35160161214537        0.39953115383902
C           -3.50714069510847        1.24230858393968       -1.22675430098535
C           -5.55395579005442       -1.10379343219478       -0.91612294259257
C           -6.00672061198309       -0.05182869416911        0.11393254976673
C           -6.08342722667645       -0.78418833237543       -2.32338822931152
C           -6.21109825664478       -2.42763713987785       -0.48641977844626
H           -5.99851460294920        0.95841498966490       -0.27866848350671
H           -7.02536295327935       -0.26122682188801        0.43186477609966
H           -5.36293458322726       -0.08872197879477        0.98912357564054
H           -7.16912692763622       -0.72261083300052       -2.29865277516817
H           -5.70050956283452        0.15405310160142       -2.71355767774222
H           -5.79958960146858       -1.57423070715922       -3.01602984976677
H           -5.79943836913019       -2.77376908528324        0.45809575135533
H           -7.27857911946361       -2.26751449107012       -0.35290250706077
H           -6.09970836178827       -3.20510317186452       -1.23800737929748
C            4.79913250702494       -3.35751012899136       -1.93564449844442
C            5.32608429700162       -1.56798054219739       -0.33476809524847
C            4.75425223072956       -3.91326537663282        0.46686014710750
H            4.50742847649938       -2.66534371466069       -2.72195351440095
H            5.87737876657875       -3.49272583011667       -1.98545329806144
H            4.35310945400776       -4.33040803947502       -2.12407205727573
H            4.17585775440254       -4.80620234624631        0.23861335302027
H            5.81119191288273       -4.16377763406974        0.40859104885638
H            4.52713354500681       -3.62273592478618        1.48773921239208
H            4.81858905428717       -0.66916265506050       -0.67279855913858
H            5.62352233671658       -1.43085799731440        0.69956794559129
H            6.24230605862727       -1.67226753212378       -0.91176325448934
C           -2.68965806318755        1.61976040465341       -2.47186523784807
H           -4.54561274602839        1.21340326848744       -1.54671386066639
C           -3.40705934752524        2.32639651407866       -0.15338140920974
H           -3.01541760295188        2.59154531170140       -2.83523515256074
H           -1.62947845358926        1.68164488685187       -2.24832971333325
H           -2.83660366052253        0.88523336362529       -3.26283113279974
H           -3.86514559359001        3.23770981365242       -0.53325980515129
H           -3.92704469294056        2.02000723904115        0.74848185134227
H           -2.38042153447707        2.55436743896895        0.10726684710216
C            3.28871127208355        0.27532573829782        1.85166125287116
C            2.39588585582893       -1.78320816293246        3.02530863967825
H            4.04073734912037       -1.69850638859654        1.70886561656456
H            3.92911510720815        0.47713836740948        2.70687232738007
H            3.77559455284703        0.64992409366155        0.95488640277693
H            2.36338130337444        0.81614306929355        1.99897346455133
H            1.52816098285541       -1.20023372888204        3.31198939117315
H            2.09824981131710       -2.82098436317804        2.88492375178163
H            3.11417850746966       -1.73800717374966        3.84059701826984
