73
 energy: -114.125341317936 gnorm: 0.000470849634 xtb: 6.5.1 (b24c23e)
Si           0.00813411649334       -1.20216532961379       -0.06371112069217
O            1.35965914294255       -0.58762021010598        0.59443334031516
C            2.51599110766919       -0.95586726920014        1.30894100129084
C            3.40591381665626       -1.88061830456784        0.51403923744849
H            3.04596327529988        0.00044545434345        1.44525978393767
C            2.99050905463341       -3.15489108106557        0.14957977231101
C            4.66691264478564       -1.44535101770891        0.12354632582089
C            3.81668111015915       -3.96749398818743       -0.60729667430244
H            2.01859214376279       -3.51289263766943        0.44694307438754
C            5.49541459961266       -2.26236110258799       -0.62504300762336
H            5.00569334008008       -0.45949484167300        0.41093188004259
C            5.06879565487558       -3.52547638745258       -0.99797010284463
H            3.47652217132761       -4.95179414469601       -0.89110528286981
H            6.47328410089224       -1.90929510858062       -0.92032806165356
H            5.71140428521464       -4.16200887473972       -1.58869582800778
C            2.18738450950555       -1.51507524635735        2.70427593078878
C            1.44075424448045       -0.53010905121106        3.45552004628570
H            3.12439046315100       -1.74980204648404        3.21574903728601
H            1.59053060064669       -2.42280133728558        2.60686393094260
C            0.82263233921087        0.33441581151679        4.00600582355681
H            0.27140892945261        1.05868185686228        4.52741572278434
Cl           0.03318275583159       -2.23314639105989       -1.83828231504461
Cl          -0.29930509922170       -2.95864904076093        1.13430304751468
O           -1.39202852464980       -0.65264563905535        0.73186586235696
O           -0.08964928012868        0.29191702445406       -1.13821922964461
C           -2.04907523803056        1.59713269442954        0.27208826083830
C           -0.73549883987811        2.11871957059617        0.15880164397209
C            1.48922341781058        1.92594425549977       -0.71817149174479
C           -3.55572266785772       -0.27202165021586        0.01058486145501
C           -4.66830250566605        0.54507519185685       -0.03900801165730
C           -3.18276059353785        2.42702039203099        0.33010363354410
C           -4.44721466923167        1.92469449875439        0.20051394403584
C           -0.35699000852520        3.35861697861227        0.70799280901489
C            0.90754681765153        3.84985944838484        0.55368989864854
C            1.88517827460387        3.14323234578111       -0.17878849192616
H           -3.03459155780735        3.49152107006695        0.41467794462068
H           -5.27939591792577        2.60471191346946        0.23788456331600
H           -1.07831465278172        3.89799395779606        1.29972927739159
H            1.15424567865529        4.79033298243853        1.01409724555839
C            3.29397071387973        3.68105216903436       -0.37061547590913
C            2.31236860679231        1.07070881872017       -1.48859414015679
N           -2.31242388389377        0.24210530877279        0.26120894017195
N            0.22747010415523        1.45874370735028       -0.55917218763580
C           -3.55202186070031       -1.67583899913318       -0.15199145650403
C           -6.05162914468204       -0.01253092318402       -0.33117085671750
C           -6.43487893635026       -1.02675679220315        0.75617659626919
C           -7.12350260026075        1.08274925564424       -0.35081419973317
C           -6.04330721645689       -0.68802272503225       -1.70992704184465
H           -6.43752643637957       -0.54781121255492        1.73330924401379
H           -7.43089708816066       -1.41753917766773        0.56196409255007
H           -5.73766586456941       -1.85825942603476        0.78133814862505
H           -8.08591765386314        0.63163680674024       -0.58138669526682
H           -7.20987185768612        1.57060736346771        0.61737706426611
H           -6.91377716974227        1.82865217753753       -1.11406133557628
H           -7.03198613695420       -1.08121835424933       -1.93458833635036
H           -5.77665586900462        0.03281494760673       -2.48041273697801
H           -5.33182280714150       -1.50723721372618       -1.74253690369376
C           -3.38516162194233       -2.85976880956325       -0.28097675033920
H           -3.27806428449424       -3.89760222109415       -0.39367976088006
C            2.90884261803777        0.25806107482654       -2.14282964843760
H            3.46380747610535       -0.43480039816398       -2.70216281952594
C            4.30559546018663        2.68974187274600        0.22122788160192
C            3.56178243041959        3.88262995660553       -1.86943372410405
C            3.49727674566714        5.03050747945665        0.32731236280996
H            4.25381395270754        1.73287732579552       -0.28857520959267
H            5.31438430646105        3.08304256798716        0.11713553798891
H            4.10381225213576        2.53512960740179        1.27986225918037
H            3.47840838164832        2.94687847669913       -2.41340161852402
H            2.84891051475576        4.59121179562007       -2.28667062112711
H            4.56420196241006        4.27806394037886       -2.01545386983910
H            3.35059977203152        4.94677460481478        1.40164448139757
H            4.51754005284682        5.36665196509444        0.15676536586296
H            2.82742704187582        5.78884828369814       -0.07154186745276
