73
 energy: -114.129082868547 gnorm: 0.000846997958 xtb: 6.5.1 (b24c23e)
Si           0.36791032847011       -1.33684443425009        0.65370110432385
O           -1.21955261039840       -1.25737901388320        0.28364355027174
C           -2.14100285954024       -2.24307317330104       -0.10174434031901
C           -2.91547446664312       -1.80557525751031       -1.32067622495255
H           -1.60136272689087       -3.17186182297149       -0.32806530641694
C           -2.88773187269325       -0.49302066321823       -1.76670773183679
C           -3.69705369248101       -2.73099010908218       -2.00396118919488
C           -3.63598376842627       -0.10462660454890       -2.86468555988305
H           -2.26660995935878        0.22379726001207       -1.25516005465447
C           -4.44756370566527       -2.34330210363739       -3.09822790867011
H           -3.70721973457531       -3.76187570009350       -1.68056557761800
C           -4.42392668953804       -1.02665934274299       -3.52949438070597
H           -3.60073017517793        0.92256507679564       -3.20042622500569
H           -5.05071719460684       -3.07132151135068       -3.62061463691560
H           -5.01115978529265       -0.72468882870937       -4.38431810072185
C           -3.11585476501263       -2.51090041492278        1.06578752483224
C           -2.39328077505860       -2.99275808931075        2.22251475219930
H           -3.85278789035152       -3.25269395179741        0.75012170556100
H           -3.63226821648924       -1.57941431161773        1.31381176783967
C           -1.74200231214449       -3.37924090605330        3.14869908227013
H           -1.16942953471136       -3.71512833789670        3.96044882815464
Cl           1.16164190554968       -1.78198586485721        2.49088862695220
Cl           0.76313350310684       -3.27968547663970       -0.16761003299098
O            1.32534706753770       -0.73657813856919       -0.62719851403317
O            0.27093008906438        0.35974240513913        1.32577106043280
C            1.53310039605459        1.62970509569320       -0.75729323555540
C            0.18104940053325        1.90226439525618       -0.42617290017191
C           -1.69821837464756        1.53856029376335        1.02414028346685
C            3.45338053453908        0.18263119715591       -0.55004746457412
C            4.33259124718502        1.19557516765206       -0.88530828648414
C            2.40543717354653        2.62957309930545       -1.22213105290355
C            3.75412449251877        2.42190417980064       -1.29771485143512
C           -0.58834571191905        2.87434998708332       -1.09379445689863
C           -1.87765556455688        3.13795109278792       -0.72829051461853
C           -2.48338607706448        2.47280161874327        0.36120527879993
H            1.99607762459585        3.59993375879434       -1.45286051855773
H            4.38233844367935        3.22595704597715       -1.63762369787725
H           -0.15188804016374        3.37626396038509       -1.94188019007821
H           -2.43464658358017        3.86483561147681       -1.29257072841076
C           -3.91140648259187        2.76384679993304        0.79182749546254
C           -2.09185379169160        0.80373164074929        2.16655023585280
N            2.10255298952561        0.38525066683593       -0.58066428186631
N           -0.43018428861336        1.26872408357814        0.62686237797332
C            3.81105684374627       -1.13449861153444       -0.18529018903583
C            5.83750739575501        0.99587343406941       -0.81540844508540
C            6.25476764786269       -0.10862638133307       -1.79696902345943
C            6.60674397937870        2.26965409578780       -1.18294677176325
C            6.22872394055455        0.60911337416458        0.61824477543839
H            5.98129152492567        0.16777958822627       -2.81348747988760
H            7.33215296710567       -0.25012338041906       -1.75697998583267
H            5.77401431202442       -1.05112307909735       -1.55386803567039
H            7.67309884563070        2.07907317677017       -1.08598834611489
H            6.41598652940934        2.56694362775306       -2.21161745331025
H            6.35285894430296        3.09076332913596       -0.51641842935141
H            7.30626612894325        0.47887984046350        0.68479426503759
H            5.93345311775688        1.39284472434775        1.31307380843783
H            5.75103717198432       -0.31736215611700        0.92089431276463
C            3.95259105900044       -2.28311920082537        0.14178882091471
H            4.11436823191343       -3.28011013879553        0.42609716847394
C           -2.28209776811482        0.13922904330752        3.14960474931799
H           -2.49799231229331       -0.44529622384167        3.99376562398347
C           -4.73694025734175        1.46955470751460        0.75953505129540
C           -3.89956717345721        3.35164226601041        2.21087150107172
C           -4.59651294613835        3.77533886374696       -0.13348012177808
H           -4.71537891352858        1.02925394237827       -0.23565660742214
H           -4.35116447442553        0.74332357279567        1.46766789133695
H           -5.77079423035332        1.68478823869676        1.01979279016974
H           -3.46058189780100        2.65628690798164        2.91999552913494
H           -3.32512869075150        4.27585673192796        2.23096017636131
H           -4.91603092923388        3.57200986824007        2.52807550029160
H           -4.64460829130445        3.40487018049210       -1.15491180484303
H           -5.61589282112178        3.93545972636847        0.21014217138609
H           -4.08818548045249        4.73680155182776       -0.11953115290262
