73
 energy: -114.126239968501 gnorm: 0.000948483129 xtb: 6.5.1 (b24c23e)
Si          -0.27947881576604        1.18244364625632        1.24278481160318
O            0.07320978008846        2.47427719906229        0.32678767479775
C           -0.12843341003279        2.68640423534717       -1.05393338012073
C            0.93541979187817        1.96690538861531       -1.83955726104333
H           -1.11261656167481        2.29860583795940       -1.33550929051504
C            2.27319111722690        2.14661634144710       -1.51387268614390
C            0.59752985178419        1.09483980276641       -2.86461045916683
C            3.25947186488402        1.47629726789830       -2.21393406399880
H            2.53409687153653        2.80378314110946       -0.69849318446155
C            1.58351812464127        0.41208575039919       -3.55507737748762
H           -0.44333000461934        0.94581334275375       -3.11388285540337
C            2.91638873720188        0.60506337216061       -3.23403441633520
H            4.29786929830484        1.63667246204268       -1.96520521888277
H            1.31118264786394       -0.27094325406829       -4.34705050420169
H            3.68551608235305        0.07867736716842       -3.78101979249356
C           -0.09307929260015        4.20382859145801       -1.30503742961240
C           -1.28651428231006        4.82825736764190       -0.77556680080707
H           -0.02164383905727        4.38828431155715       -2.38081693658415
H            0.78466966409554        4.62345465306240       -0.80937473133594
C           -2.29214350856780        5.29791409961612       -0.32898854819001
H           -3.15729070963813        5.73264197541866        0.07463522400115
Cl           0.56390336666862        2.14095252421344        2.91351112900381
Cl          -2.14115382298029        0.87776289940298        2.11776060001822
O           -0.81460123277698        0.27355384905354       -0.29577321898247
O            0.73393900753538       -0.13995732576344        1.59348309355687
C           -0.85900723658802       -2.02969263452079        0.05749696633367
C            0.55436214025892       -2.07247490840139        0.19129732241935
C            2.66922285167236       -1.00704033357115        0.68205589656978
C           -2.86535207359234       -0.77987885057277       -0.37072968009376
C           -3.67441805927221       -1.90298427081034       -0.27602829223685
C           -1.65886048504125       -3.18681505501371        0.11788784452451
C           -3.01620898859023       -3.12507653713408       -0.02119173691313
C            1.29238558513907       -3.18433713066395       -0.24979615153933
C            2.65848871619225       -3.19711797749161       -0.24437687245147
C            3.40070111781292       -2.07435056059214        0.19925497522196
H           -1.18226936622478       -4.12753513069379        0.33986313213138
H           -3.58489972690140       -4.03313583699466        0.07411330497896
H            0.75179041010611       -4.02649615556602       -0.65064309773295
H            3.16754671373319       -4.07162240595199       -0.60792111672082
C            4.92130511055914       -2.06660300089919        0.19420726219842
C            3.20964911602140        0.17978276789200        1.22600298249174
N           -1.52222302348768       -0.85832826778599       -0.19605519292185
N            1.29919688387807       -1.04009957739370        0.72715443581960
C           -3.31448771570318        0.52177766160207       -0.69993354712045
C           -5.18287969645059       -1.81083862972361       -0.42675122701675
C           -5.52902534832862       -1.32490849260848       -1.84199208839797
C           -5.86672850456167       -3.16624184079515       -0.21636804909956
C           -5.73458261496229       -0.83868241344531        0.62542786541621
H           -5.13258897000768       -2.01477951084899       -2.58497761151063
H           -6.60871150141539       -1.27603608179353       -1.96089596649777
H           -5.11782661603821       -0.33825394835476       -2.03017507190470
H           -6.94229424261299       -3.03829356139319       -0.31453096590304
H           -5.55001474094317       -3.89300710258018       -0.96126887251952
H           -5.66833237851109       -3.55729237451516        0.77861702218939
H           -6.81617349496218       -0.77069615285398        0.53515683168683
H           -5.49112343288984       -1.19145751830895        1.62489565316591
H           -5.31360509220845        0.15430304502617        0.50814128854441
C           -3.54714890342987        1.65797288294356       -1.01734467918973
H           -3.80858979436336        2.64475665289145       -1.26244707168473
C            3.52032344606344        1.22194689350402        1.73934347048916
H            3.82292734965022        2.12150889210800        2.18693866553618
C            5.43551692022456       -0.87245183089577       -0.61896829536440
C            5.42382007924625       -1.97634431405420        1.64294468748748
C            5.50402043843678       -3.34027391375532       -0.42846933077205
H            5.10784652220298        0.06488689906554       -0.18184521285139
H            6.52287005379651       -0.88192730161192       -0.64234672485285
H            5.06629147439770       -0.92925599178845       -1.64050854160374
H            5.07797675491853       -1.06522892352144        2.12131806588515
H            5.06551604767388       -2.82667199954640        2.21963587311121
H            6.51113493090379       -1.98407617149270        1.65833092587566
H            5.17629096489290       -3.46232215558336       -1.45841354048790
H            6.58934057071218       -3.26838978401424       -0.42996810979677
H            5.23275408255216       -4.22378789406883        0.14448919789500
