73
 energy: -114.041426212408 gnorm: 0.000635969238 xtb: 6.5.1 (b24c23e)
Si           0.44806102172257        1.35157831581182       -0.62072049713670
O           -1.08719282707500        1.07435706831238        0.30946378369464
C           -1.86229858690409        1.95389473169310        0.80110485438302
C           -2.98941430271413        1.61570412572854        1.58770427094820
H           -1.63599427036400        3.00293155675137        0.63147928569769
C           -3.22228039030149        0.28826636687803        2.00379808164911
C           -3.88698168919192        2.61787947156590        2.00873518011328
C           -4.29786731032554       -0.01239854856496        2.80658975500881
H           -2.52213570499193       -0.47518472072309        1.69987902862475
C           -4.96804631509917        2.29906494842739        2.79691486975593
H           -3.70979602667873        3.63676159951538        1.69974212589173
C           -5.18060627392140        0.98565597608238        3.20248799414748
H           -4.45669280092956       -1.02803335247264        3.14193982838554
H           -5.65380591632713        3.07214878649511        3.11127086011591
H           -6.02435149222020        0.74332028566289        3.83069977959564
C           -1.75971517866703        4.46625408859920       -1.74933899457476
C           -1.05442108929517        3.39268264738242       -1.94186891341926
H           -2.82885102173365        4.43130373764651       -1.60352531210631
H           -1.30232801052216        5.44179838463729       -1.73195021952885
C           -0.34423983624944        2.32503581757321       -2.07666129197680
H           -0.14695256935761        1.93034774261470       -3.06244057798912
Cl           2.41379219203825        1.22493710845668       -1.64360679955837
Cl           0.96241556751840        3.05146950331896        0.58471521299129
O            1.10788738823803        0.23182651890191        0.75003944747475
O            0.04502954192780       -0.23313233876587       -1.50380293108874
C            1.59694008075564       -1.89647190633166        0.02869285359980
C            0.18833124164050       -2.14030463691854       -0.19747858741290
C           -1.89401769523732       -1.41701356321484       -1.11136204450342
C            3.32419226419910       -0.39098223165528        0.65814156967916
C            4.31838112401241       -1.33362821012092        0.39132266292414
C            2.55510347430640       -2.88460752512331       -0.17493407911717
C            3.89255005628786       -2.60291961078807       -0.01590599379455
C           -0.43853749619991       -3.29744296056823        0.24646157170191
C           -1.78057684581322       -3.50968624667234        0.01934755850281
C           -2.55271742100736       -2.55967965612432       -0.66967103429577
H            2.23338451182835       -3.85582304620903       -0.51596969898302
H            4.60961778721494       -3.37761212325573       -0.22364474481176
H            0.14116370786731       -4.01588195681873        0.80445978050826
H           -2.22948293439278       -4.41315805774381        0.39109768370857
C           -4.02375219001025       -2.79373754507929       -0.97796292758833
C           -2.49267860074531       -0.35618609351618       -1.82484760262194
N            2.01448165468315       -0.68691283093116        0.47498331366724
N           -0.55431407133669       -1.24889463853278       -0.91306932007372
C            3.54784546164916        0.89872317584258        1.18533672300288
C            5.78865053973310       -0.97929420684769        0.52749605367735
C            6.10172402502542       -0.62103513859639        1.98746934796005
C            6.70248885057836       -2.14174665842187        0.12371338519383
C            6.09445372083353        0.20582524752901       -0.39865122958545
H            5.87368947120567       -1.46189622758027        2.64027306855354
H            7.15833801737093       -0.38562585824652        2.08777223526884
H            5.52560079528298        0.23876632314464        2.31308799038964
H            7.73817047186292       -1.82289423451352        0.21434647390067
H            6.56350424707146       -3.00401309181476        0.77260748754611
H            6.53484091396978       -2.43437694515713       -0.90995847660846
H            7.14384489072487        0.47830347293529       -0.31627981762663
H            5.88306789375273       -0.06245442365462       -1.43095930918280
H            5.48850172587235        1.07053218539881       -0.15054275455091
C            3.58872097720904        2.00154052572028        1.66237952316588
H            3.64751798675156        2.97743220026455        2.04305900016333
C           -2.87694265516205        0.61069401856898       -2.42786673200043
H           -3.25436649688581        1.43724561264888       -2.95205734105289
C           -4.88350325989492       -1.66471018969577       -0.39538105829188
C           -4.19627813446838       -2.85838984645399       -2.50347343799022
C           -4.53384311098806       -4.11495306619517       -0.39139158041961
H           -4.56321237267823       -0.69177327858640       -0.75333567514903
H           -5.92215596507077       -1.81157458371237       -0.68191729787212
H           -4.82404341664961       -1.66519181709440        0.68975961609805
H           -3.92223749426328       -1.91699495502808       -2.96943072932695
H           -3.57407169732198       -3.64752349356763       -2.92133170386418
H           -5.23353146857324       -3.07433330303913       -2.74753593442673
H           -4.43097362559577       -4.13391369720240        0.69111248748253
H           -5.59062413333931       -4.21958084353921       -0.62552908204651
H           -4.01345190462992       -4.96863088502377       -0.81946001458912
