73
 energy: -114.129279708702 gnorm: 0.000930119277 xtb: 6.5.1 (b24c23e)
Si           0.38080651491702        1.52947040362967       -0.29093981673791
O           -1.19157820858580        1.33121110924825        0.08253572603083
C           -2.09211652007846        2.02431930811507        0.90961921723281
C           -2.78983506138473        1.00270876883199        1.78338776017896
H           -1.52458449536141        2.72209712446880        1.54315161854415
C           -2.07800605837098       -0.11776293595338        2.19972418422044
C           -4.11475976778669        1.12988831046545        2.18217184847536
C           -2.67896736927910       -1.10197732289660        2.96147936434958
H           -1.03890660456912       -0.21184674310855        1.92562666573133
C           -4.71415559268547        0.15068570114682        2.95712342093254
H           -4.69472042727160        1.99286211868142        1.89572477956143
C           -4.00466749625898       -0.97421243937681        3.33941808497984
H           -2.10869217933142       -1.96846981602039        3.26444529466504
H           -5.74554573977511        0.26628941561751        3.25732971007157
H           -4.47936952945453       -1.74103665097383        3.93400864035772
C           -3.06344008009327        2.83732075875869        0.03393320420082
C           -2.33095831723247        3.63656959741922       -0.92611713701663
H           -3.65468968412032        3.49946747790141        0.67002585580962
H           -3.72839468451973        2.15167338025394       -0.49950406402664
C           -1.69598438581729        4.27072002637422       -1.71687089124006
H           -1.12941042876370        4.82611419839199       -2.40250311510970
Cl           1.11894065766332        2.46137234567889       -1.95591222850083
Cl           0.78592969229441        3.16650555375210        1.03382654154213
O            1.39589641898906        0.60453697155370        0.73112531561215
O            0.23631143275284        0.07230048898421       -1.39153358628435
C            1.62271773537328       -1.69588882812548        0.18018864123985
C            0.24716235831218       -1.88178387352710       -0.11545094158608
C           -1.74010803904608       -1.12876000660981       -1.22965969943726
C            3.52458531186213       -0.21131831396258        0.28400022755053
C            4.42373120532962       -1.26095648018076        0.27600598098014
C            2.52279984317499       -2.76930724346687        0.28903992444622
C            3.87327666888512       -2.56525595530842        0.34890191263320
C           -0.48425426463792       -2.99914083611016        0.32812619562891
C           -1.80839726179931       -3.14670802543991        0.02867455192503
C           -2.48929099897929       -2.20422110172174       -0.77200645928346
H            2.12903021370059       -3.77249857410280        0.25442759126665
H            4.52251694313551       -3.42026212447111        0.41046122217374
H            0.01363888723262       -3.71561418361416        0.96128330575232
H           -2.33334061609819       -3.99917864764461        0.42194674167704
C           -3.95647269967084       -2.36447628537199       -1.13302492394308
C           -2.21661194196444       -0.10904396883113       -2.08646768030041
N            2.17822696433448       -0.44117641192611        0.32766298422363
N           -0.43175258914391       -0.98848655395343       -0.90510584813920
C            3.85529129983613        1.16216803738761        0.28417617980335
C            5.92197600355476       -1.01955804194084        0.19689418961725
C            6.37756928291754       -0.22300089062662        1.42814796894829
C            6.71695832523030       -2.32944801958519        0.16187613903954
C            6.24061580219413       -0.24184867982261       -1.08830932787708
H            6.15153098153769       -0.77505365352190        2.33844610214044
H            7.45131440078442       -0.05726643015218        1.38391229168002
H            5.88180755194333        0.74147266535908        1.47674267387207
H            7.77623861578675       -2.09796302431541        0.07761054164098
H            6.57535339547599       -2.90477999133271        1.07396450126855
H            6.43940337741430       -2.93764481212105       -0.69609022988248
H            7.31255474913292       -0.07505904475385       -1.16285277604128
H            5.91905453990849       -0.80829717082164       -1.96016818869875
H            5.74094413213255        0.72175559734351       -1.10014591865972
C            3.97228199214897        2.35880926498537        0.28133223199173
H            4.11096933447037        3.39916508688040        0.27625555615256
C           -2.48549735911902        0.79914070804462       -2.82619837532349
H           -2.76122343648444        1.59481522135102       -3.45201613055391
C           -4.74130274039756       -1.13070265067045       -0.66760359320913
C           -4.08597218291313       -2.53696421033774       -2.65399390809523
C           -4.58374230582828       -3.59121980246456       -0.46210484877588
H           -4.64627764185244       -1.00967600574396        0.40915152864445
H           -4.37637654314001       -0.22981724378032       -1.14988749460233
H           -5.79464227344861       -1.24924027183351       -0.91156349118932
H           -3.69627543276934       -1.67153694122662       -3.18123302541929
H           -3.53755531216320       -3.41819480545882       -2.98140941574546
H           -5.13174929559232       -2.66331515806024       -2.92392436105498
H           -4.52636391012080       -3.51695196602824        0.62147564499120
H           -5.63451745130406       -3.64639351081254       -0.73730556808875
H           -4.10724770521344       -4.51240699253482       -0.78964501695054
