73
 energy: -114.121697929551 gnorm: 0.000437321535 xtb: 6.5.1 (b24c23e)
Si           0.42845728668558       -0.51679161399469        0.42520457574843
O            1.13486166139609       -1.75074776464408        1.20576894337963
C            1.37209064567029       -3.08397234848945        0.83190609602476
C            2.57052681759120       -3.16019887761633       -0.08055151781715
H            0.48922460301120       -3.48593475146106        0.32109712299904
C            3.64552778386502       -2.30524501671217        0.12329774139001
C            2.62024168748239       -4.08481906643054       -1.11387157896717
C            4.75913260021894       -2.37965398195237       -0.69380919179227
H            3.59439229470004       -1.57429905921902        0.91666103925110
C            3.73454582152412       -4.15621963757115       -1.93121181640688
H            1.77871335041404       -4.74057599961333       -1.28368172856559
C            4.80738818594973       -3.30648143899529       -1.72127805692734
H            5.59752938095372       -1.71905188757628       -0.52161148998160
H            3.76430222375580       -4.87495723830362       -2.73705470731041
H            5.67734814540566       -3.36457280101212       -2.35948921270448
C            1.64018896213091       -3.89395770956975        2.11434208443882
C            0.44987053017949       -4.01794807529950        2.92602424969829
H            2.00097270433482       -4.88768007315197        1.83409519831022
H            2.41553769433281       -3.38139997655735        2.68887042439997
C           -0.54320798596463       -4.11673871721499        3.58671368786462
H           -1.39950299234819       -4.19788937493661        4.18784126210193
Cl           1.44679669312206        0.75147194791430        1.84356482926143
Cl          -0.31258320134103       -1.72555016661859       -1.22825176592363
O            0.55321665741392        0.66896230114314       -0.83264848174928
O           -1.07447119490564       -0.03969206421579        1.06370018396465
C           -0.84218584814025        2.46370442267322       -0.28433629478804
C           -2.00699767380918        1.63809827305960       -0.31323242015460
C           -3.11686325442553       -0.47754947472888        0.04891584104686
C            1.54960272915497        2.73340629563067       -0.44431086938870
C            1.48478158750301        4.08939527204096       -0.17241685724642
C           -0.92755071104405        3.84958948631152       -0.07944712558308
C            0.19122115593144        4.63448074943680       -0.01022111032654
C           -3.19981659065930        2.09424856079175       -0.89597265276168
C           -4.28953126670098        1.27975493577875       -1.04248319996933
C           -4.26443667843278       -0.06556497858728       -0.60518515560819
H           -1.90026754915389        4.28042546361809        0.09588221191686
H            0.07122335868473        5.68387162505843        0.19308426940199
H           -3.21811541998899        3.09457803548929       -1.29816069091229
H           -5.16484859847676        1.67208796598352       -1.52872027679581
C           -5.42759671269841       -1.01440358292312       -0.83908407840790
C           -2.91003944279850       -1.74929940095388        0.62911097888898
N            0.42123272343229        1.98053508374404       -0.51954473960401
N           -2.06551735304694        0.37105755254366        0.22596053166658
C            2.72612076893391        2.00182727411773       -0.72499926649504
C            2.74198810630610        4.93035973893353       -0.03804807408999
C            3.50133617859949        4.93890750804069       -1.37264650061472
C            2.42755859788778        6.38322852239634        0.33418943525322
C            3.61706549628068        4.33704808186620        1.07470837322284
H            2.87735510518083        5.35913711682943       -2.15919944096102
H            4.39733834302002        5.54835793769625       -1.28267350345993
H            3.79514432753833        3.93524844978150       -1.66276880708677
H            3.36114533493087        6.93073540872059        0.44150365860653
H            1.84175867543277        6.87529027503884       -0.43910153680544
H            1.89754581093156        6.44023408844670        1.28175951399463
H            4.51296534018442        4.94002949277555        1.20303825868499
H            3.06869863593795        4.32183587385779        2.01342372771572
H            3.91182154219122        3.31897337644116        0.84407680093400
C            3.62660717269464        1.26643673135699       -1.03064987236326
H            4.45072793237767        0.66163708631963       -1.26671190861144
C           -2.60095348758531       -2.77271454006120        1.17895898874870
H           -2.35036480403875       -3.68667233779409        1.63010174677778
C           -4.93575429852612       -2.21528140275637       -1.65920540595623
C           -5.98909759255453       -1.48139823967598        0.51169155722636
C           -6.56842222937654       -0.34884700669072       -1.61647897539188
H           -4.14222050178429       -2.74696466030622       -1.14422588575939
H           -5.75811084112503       -2.90456023698500       -1.83615740248010
H           -4.55226346872428       -1.88044134823055       -2.62046903021748
H           -5.23782572106972       -2.01459129159445        1.08535667319001
H           -6.32904974552321       -0.62701614372649        1.09387705295609
H           -6.83498184051506       -2.14518451112015        0.34954578623035
H           -6.23376871377518       -0.00596576266741       -2.59262650442274
H           -7.36105314878781       -1.07692605599064       -1.77329778292348
H           -6.99105578597073        0.48763068210046       -1.06440392795849
