73
 energy: -114.121575130394 gnorm: 0.000710875366 xtb: 6.5.1 (b24c23e)
Si          -0.01832633496218       -0.90122871402491        0.20899055567576
O            0.75590031887830       -2.28449693323290       -0.14869297267929
C            1.88106729934075       -2.93065779484229        0.37941334214677
C            3.12567758514039       -2.59405198689016       -0.40267317834649
H            2.01903498663729       -2.62734302228431        1.42504641928521
C            3.04696119775307       -2.04877931550673       -1.67558284804648
C            4.37438071388911       -2.85207142527862        0.15224440872282
C            4.20087000769783       -1.75754975967120       -2.38289509412074
H            2.07676716182508       -1.84263305464197       -2.09854476772832
C            5.52695630823168       -2.56664574519121       -0.55834630969469
H            4.44007177393358       -3.26644262851020        1.14866268230240
C            5.44238496579584       -2.01729040711054       -1.82841926182725
H            4.12958459853009       -1.32758067835883       -3.37105108118213
H            6.49383008503527       -2.76749089666215       -0.11880516988063
H            6.34298396056309       -1.79056747881894       -2.38050495538752
C            1.61539779369169       -4.44933622210481        0.31887266952413
C            0.57504873946710       -4.82813613869750        1.24937909805739
H            2.53637437038078       -4.98777942296113        0.55723464327436
H            1.30605491344707       -4.70220649134618       -0.69864698441591
C           -0.28341432162995       -5.10686343964104        2.03470837026746
H           -1.03122574523629       -5.37363924168816        2.71967578263705
Cl           0.94503161980331       -0.57147283194148        2.09448718258903
Cl          -1.39985128720929       -1.52563937477986       -1.33077272630856
O            0.64579581145834        0.36864854897166       -0.71487491971002
O           -1.27273499800436        0.03988186868113        0.98923583654618
C           -0.62019406560295        2.36170733594239       -0.37746468506611
C           -1.90845388507771        1.75500686076265       -0.45672850408606
C           -3.45124884354364        0.02207200275138        0.18615307274661
C            1.76434037890537        2.27238322284883       -0.00651040782133
C            1.86525394983461        3.64551204963113        0.13246889225503
C           -0.50650338327459        3.76140988029423       -0.34297198768726
C            0.68389977580405        4.38862505548725       -0.10157798531662
C           -2.95409363887292        2.33450561060278       -1.19411623547145
C           -4.19332157935595        1.75914205044019       -1.25347397464272
C           -4.48541019543116        0.56611730933563       -0.55788985393155
H           -1.40819971700696        4.34456874224782       -0.43929171173204
H            0.70196720705987        5.46264838071033       -0.05690775784861
H           -2.74255144370385        3.21767862870339       -1.77475846583295
H           -4.94610746468262        2.22395966292929       -1.86531121177964
C           -5.84418833870554       -0.10718167879658       -0.64110682526131
C           -3.53160745248905       -1.15024501714661        0.97134932318377
N            0.57509445722210        1.67172033067826       -0.31066581799878
N           -2.23554500194325        0.62399983823117        0.24307699483510
C            2.84813732395860        1.37360454116668        0.10293686704986
C            3.17281611635638        4.31963997020938        0.51565731172026
C            4.22559438461772        4.06079107869894       -0.57181291406498
C            3.01693073125823        5.83797241776866        0.66150253485716
C            3.64832356773288        3.76913392858863        1.86774294204276
H            3.88226840878653        4.45219271462485       -1.52738716720370
H            5.15524936253205        4.56021324680966       -0.31004353355284
H            4.42358223785753        2.99981468651612       -0.68309217097960
H            3.97081015571943        6.26259680709727        0.96581648775341
H            2.73376140273291        6.30192559993411       -0.28043767244864
H            2.28289643124067        6.08870710763802        1.42367930046928
H            4.58039684765764        4.25005754753474        2.15471528792693
H            2.90530474783749        3.97164097755244        2.63615677801625
H            3.81178467937351        2.69751720464264        1.82411840004906
C            3.71713951293492        0.54536081402896        0.16215103304352
H            4.49933705897656       -0.14947106022737        0.23777654027435
C           -3.46991771050648       -2.11380339566398        1.68708793708839
H           -3.46462522473377       -2.97470837601627        2.28639121358405
C           -5.66663586261656       -1.51396668926392       -1.22873131983408
C           -6.46740645130011       -0.18336019731017        0.76027132208991
C           -6.81473720017765        0.66178179594268       -1.54412426864252
H           -5.03429002823692       -2.12798245285121       -0.59655374861045
H           -6.63503126779831       -1.99816724648173       -1.32993831109619
H           -5.20153648358396       -1.45306520713389       -2.20958686105260
H           -5.84366454437645       -0.75847819602057        1.43691452002100
H           -6.59539211378297        0.81643414514889        1.17100561277082
H           -7.44368300725721       -0.65872360917269        0.70368480322870
H           -6.44250514111660        0.71819986942696       -2.56408456619325
H           -7.76725081883409        0.13733426237803       -1.56682200750003
H           -6.99746939885242        1.66609203531227       -1.16837393105522
