73
 energy: -114.122989439580 gnorm: 0.000808771113 xtb: 6.5.1 (b24c23e)
Si           0.09952759523608       -0.81428910569444        0.10755372213744
O            0.70797213211871       -2.29433641397904        0.33282337193354
C            1.82821422468607       -2.76937146666039        1.03457859494076
C            3.07663944188465       -2.59608217237827        0.20762307200206
H            1.93398909544693       -2.22337013559191        1.97897526220748
C            3.01166850787527       -2.68420787076756       -1.17640737670234
C            4.30049742757704       -2.36146087766113        0.81969134045681
C            4.15640153811561       -2.53944945661470       -1.94005782870062
H            2.05660320985541       -2.85178523673863       -1.64983707384527
C            5.44598856308062       -2.22086864115783        0.05585553616656
H            4.35244140680017       -2.28011094850989        1.89560352948197
C            5.37677250552587       -2.31014357585495       -1.32548937636171
H            4.09506101968426       -2.60382498811568       -3.01668510575848
H            6.39455030356627       -2.03482837724408        0.53871506198675
H            6.27153880659052       -2.19631731168543       -1.92128940526465
C            1.58234558561926       -4.26097172934199        1.33199410569609
C            0.54158759351708       -4.42251448633125        2.32343632298030
H            2.50974663268735       -4.71091991164413        1.69667002086360
H            1.28606610408644       -4.75263394237802        0.40223730618013
C           -0.31010203151585       -4.51727791926956        3.15832968540070
H           -1.05013336464389       -4.61783551901391        3.89518182358081
Cl           1.35130664129420        0.13754439967208        1.64799892207415
Cl          -1.09171594346869       -1.71638066357381       -1.45633184924668
O            0.39898340920934        0.44217022330991       -1.02080651389215
O           -1.22098272778298       -0.14418227719922        0.95235708915663
C           -0.88752358630173        2.30726852668912       -0.38455563763792
C           -2.11265062496367        1.57204871244582       -0.37749698768563
C           -3.38084331329349       -0.41637996214124        0.13724839342729
C            1.52193491569211        2.41648650705875       -0.50899833273590
C            1.54222388175999        3.77475300309186       -0.24107277623802
C           -0.88142270532566        3.69826019211836       -0.19970906236110
C            0.28457680334146        4.40994416918352       -0.12072395441850
C           -3.27806230623802        2.09509986496294       -0.95791277527787
C           -4.43511691176677        1.36735965476584       -1.02771401162480
C           -4.51285570136758        0.05721290453877       -0.50294402805917
H           -1.82657554544083        4.19426755120027       -0.04677408031920
H            0.23069108535435        5.46830671047997        0.06236778924516
H           -3.22356950064622        3.06657400105665       -1.42258686577977
H           -5.28638473153655        1.80055836141492       -1.52214652804357
C           -5.75628524577783       -0.80227638730891       -0.64902764549210
C           -3.25590135136536       -1.66878650458572        0.77921913366242
N            0.34606305208796        1.73835171450414       -0.61073371670749
N           -2.25877006402150        0.34720493754170        0.22778286694106
C            2.65939059132192        1.61089101372827       -0.74251654866435
C            2.84825798630697        4.53265737255549       -0.07402529524072
C            3.65580273826641        4.46576301271677       -1.37827288472775
C            2.61945011059786        6.01132660705410        0.25853811712858
C            3.64109088957659        3.90777689526464        1.08261783356725
H            3.08571626778149        4.90110325308190       -2.19679310001453
H            4.58068999427573        5.02672498459156       -1.26747481848307
H            3.90349230949923        3.44099022953320       -1.63494282747570
H            3.58381302014056        6.49692203908373        0.38931891761728
H            2.09636673051077        6.52390359355489       -0.54571712209789
H            2.06134555332747        6.12649292475122        1.18458632876871
H            4.58375797431489        4.43418128815746        1.21273510390110
H            3.07304535067312        3.98095031836898        2.00730447716615
H            3.85111667510845        2.85943315698342        0.89752538653481
C            3.54640101933114        0.83414154960639       -0.97689792468079
H            4.34730130113032        0.17854747599726       -1.15075240643675
C           -3.00276274761091       -2.68474657881022        1.37001279462844
H           -2.81401518825539       -3.60128056411066        1.84439374655480
C           -5.38707946230421       -2.07865483804244       -1.41780425672468
C           -6.30769461490055       -1.15206206625821        0.74058120044492
C           -6.86485114322353       -0.08655026483189       -1.42829340363922
H           -4.62673006547420       -2.64872137019457       -0.89469568302483
H           -6.26823320042896       -2.70355190423808       -1.54323119807683
H           -4.99771331178806       -1.82379656656595       -2.40054796199888
H           -5.57887102344047       -1.70627620654478        1.32320334436695
H           -6.56863855822100       -0.24471432553548        1.28214221552664
H           -7.20285867229796       -1.76089968398475        0.63902844715251
H           -6.53726284230259        0.17014145862630       -2.43272095846967
H           -7.72029433962263       -0.75218331659816       -1.51760411103658
H           -7.19638016952513        0.81295195952682       -0.91421243093251
