73
 energy: -114.126193248769 gnorm: 0.000539201035 xtb: 6.5.1 (b24c23e)
Si           0.25534036455466       -0.87366448642180        1.48800849431415
O           -0.39398968688911       -2.25285040531956        0.93623498633358
C           -0.44725627550603       -2.78287733954816       -0.37038471958159
C           -1.60295273352845       -2.16548144916380       -1.11269602936134
H            0.48749172667736       -2.55407879448079       -0.89088582666151
C           -2.86719894851433       -2.16372603605352       -0.53756069428769
C           -1.41972217008857       -1.56977079266868       -2.35191110753641
C           -3.93706391949366       -1.59457947331750       -1.20280088919161
H           -3.00033978933568       -2.60081737793979        0.43994474752192
C           -2.48948478025781       -0.99346336541370       -3.01480849170411
H           -0.43410484816946       -1.55593662332280       -2.79459562347173
C           -3.75089648395191       -1.01209219841537       -2.44527512800016
H           -4.91952878534886       -1.60821304344586       -0.75437249773768
H           -2.33831682734510       -0.53103610269497       -3.97975041926558
H           -4.58825769652908       -0.57495284350352       -2.96951793245387
C           -0.60277776296073       -4.30962669172718       -0.25666942226834
C            0.62637318638340       -4.91621608206462        0.20647706664509
H           -0.87144197118535       -4.71512179733074       -1.23637333282999
H           -1.40150120421150       -4.53031074656172        0.45423513630143
C            1.66131861391605       -5.38563622664905        0.58151501068635
H            2.55579911021935       -5.80671657565975        0.93308482019792
Cl          -0.52498832109792       -1.27171469116569        3.39967551232064
Cl           2.23284105530882       -0.74858842032247        2.11479243769840
O            0.73864264430766       -0.41789752963404       -0.26261622557009
O           -0.48707043901807        0.65283341907712        1.60219317600288
C            1.23845482494381        1.85327260795191       -0.41615916992980
C           -0.11986189395321        2.19986469356481       -0.19006873155238
C           -2.32699197138085        1.65917655741998        0.63600273539672
C            2.92348106799704        0.16789225015064       -0.71282887307641
C            3.92936252745951        1.10247948209478       -0.91228064279708
C            2.23632032040156        2.81583075218997       -0.66147303994099
C            3.53619137467634        2.45707085323214       -0.87929808272959
C           -0.69475861534789        3.32962712035725       -0.79719318983470
C           -2.03231742160945        3.59509481007730       -0.71390889824362
C           -2.90991809381096        2.72760185713594       -0.01681967343178
H            1.96569328595463        3.85772732535786       -0.61193866352923
H            4.26727593341766        3.23349339727438       -1.02056662281150
H           -0.05903747161571        3.96748982708444       -1.38975215182205
H           -2.41760682836946        4.46631397869995       -1.21247606793807
C           -4.40743944822679        2.98198362712022        0.04436481977476
C           -3.00751101627594        0.72154097553236        1.44483410351086
N            1.64468660492163        0.54635209339295       -0.46510609859693
N           -0.97310779015086        1.44952527671419        0.59640379897804
C            3.08640289909771       -1.23617535799275       -0.78954537541352
C            5.37203842978680        0.68056797937342       -1.12813529763724
C            5.48359715996878       -0.14454884511247       -2.41845620201006
C            6.31078504372464        1.88482770100047       -1.25942603279864
C            5.83374660715017       -0.14644219246685        0.08013384669411
H            5.15128210009672        0.44326248158507       -3.27222176166198
H            6.51916195844443       -0.43256269981604       -2.58250135557912
H            4.88158300486115       -1.04574067817253       -2.36201445384685
H            7.32928294282522        1.52634063549370       -1.38961304544478
H            6.05998977482026        2.49337447989159       -2.12557888576784
H            6.28784639263036        2.50172537866643       -0.36438737432151
H            6.86997261913247       -0.44863733787146       -0.05201119824097
H            5.75755940662745        0.44506229624429        0.98949091529827
H            5.22588656668726       -1.03607208062235        0.20729498782836
C            3.06859346852855       -2.43471930128585       -0.88103629462449
H            3.09370616517670       -3.48344869118325       -0.92330881929641
C           -3.44365538472458       -0.12448885705561        2.17960504942875
H           -3.85544795025680       -0.84439802738334        2.82222405774303
C           -5.16025334743462        1.76206754091298       -0.50113451350421
C           -4.81319112132495        3.25037524086122        1.50112549154342
C           -4.82226866115567        4.19854287963733       -0.79086929414542
H           -4.94008212559101        0.87391469841206        0.08175946405427
H           -6.23210860147662        1.94299354964213       -0.46700655598304
H           -4.87245680809953        1.57663298147918       -1.53362034943041
H           -4.58963805699620        2.39722163691409        2.13388272475398
H           -4.27891101944395        4.11612916250184        1.88705730771121
H           -5.88027760788134        3.45228509812170        1.55634584984015
H           -4.55696531797318        4.06884289717846       -1.83763230993334
H           -5.90200272208626        4.31570094449934       -0.73243359289541
H           -4.37014626209729        5.11285367506458       -0.41391758203226
