73
 energy: -114.124934868419 gnorm: 0.000937841911 xtb: 6.5.1 (b24c23e)
Si          -0.12985444696161       -1.53841812881276       -0.70293615822279
O            1.43310261521766       -1.51457252927639       -0.25053640831998
C            2.18543306008831       -1.68312341785514        0.93661920470793
C            1.62198863020088       -0.79939124358716        2.02447985525981
H            3.18572764487937       -1.31342812064756        0.66222129662510
C            0.45863232769529       -1.13675891342812        2.70608355261617
C            2.22797524073396        0.42150104718149        2.29242540135531
C           -0.09673982694262       -0.25340786924204        3.61493235335160
H           -0.03037510140179       -2.07662456715566        2.50902173759771
C            1.67762218711503        1.29970812642340        3.20917123273959
H            3.13845276665207        0.68880709520109        1.77451256970971
C            0.50567419416986        0.96778805393783        3.86564976187949
H           -1.00879409214563       -0.52159807128279        4.12727165921249
H            2.16279368725360        2.24506563082834        3.40585807039281
H            0.06640364743399        1.65648902806203        4.57289164004917
C            2.31761324490787       -3.15498892496857        1.35552154899136
C            3.15266405753600       -3.87254128305512        0.41733118069016
H            2.76408708037413       -3.19344171705470        2.35299345657440
H            1.33213571437050       -3.62186259528529        1.38111509269390
C            3.85677009876961       -4.42346436084522       -0.37760809756820
H            4.45941623932860       -4.93650283001791       -1.06546988899708
Cl          -0.57759280716550       -2.31421570532198       -2.54402250964035
Cl          -0.81876828200605       -3.29114260568748        0.33808145894112
O           -1.17236632496301       -0.69284670171937        0.35570923016180
O            0.09683999218703        0.03130696814490       -1.63492980452737
C           -1.22068372966110        1.68287964959784        0.13176543291788
C            0.16064561621151        1.83316991548894       -0.14912117933239
C            2.12024921308820        1.10390854391927       -1.33024828292013
C           -3.22103472165223        0.33021999774825        0.04174196211227
C           -4.05036086497353        1.42556388226858        0.18628703186108
C           -2.05315086121883        2.78603612851200        0.39495944535357
C           -3.41354764541095        2.66701120437807        0.43571548561973
C            0.93752915269642        2.87809126536761        0.38679308766214
C            2.26188035811399        3.01146816487560        0.08249903030570
C            2.90942926488922        2.11136415578549       -0.79104868280793
H           -1.59745188156783        3.75725317369193        0.49909027869451
H           -4.00371949093674        3.54662261038641        0.62137695026133
H            0.47444053955632        3.55078582516371        1.08935459030571
H            2.81582608203558        3.81441109789932        0.53616988041537
C            4.38462051323394        2.23792701776643       -1.13628410323005
C            2.56443932936129        0.13026067446362       -2.25486753353486
N           -1.86066070967915        0.45988562810454        0.10230106384235
N            0.80333047475029        0.99785206452477       -1.02706375451128
C           -3.64406942705241       -1.00561080768556       -0.14185131021085
C           -5.56159055215587        1.29736333925688        0.08894977786981
C           -6.06948187435255        0.37829924885045        1.20926517562297
C           -6.26604255116495        2.65081168635560        0.23297973014154
C           -5.93389865266769        0.71932569470838       -1.28390031922801
H           -5.80599073190647        0.78972069419510        2.18164865164105
H           -7.15203548645610        0.29246374292409        1.15410428859509
H           -5.64021679617951       -0.61525377868039        1.12634920757134
H           -7.33815844470243        2.50503687888765        0.12297591386383
H           -6.09040643728956        3.08834512354795        1.21299204576183
H           -5.94380208654571        3.34803444229499       -0.53698368333150
H           -7.01479150844547        0.63631360074290       -1.36877615705617
H           -5.57599022813666        1.37318178619858       -2.07668767885666
H           -5.50154991417616       -0.26573857888777       -1.42769289001127
C           -3.84820475681911       -2.17876524289117       -0.30846242938565
H           -4.06380922637815       -3.19716966281503       -0.44148169605504
C            2.81457637606543       -0.73782757703568       -3.04709354578866
H            3.07269429295552       -1.49308669430905       -3.72794333268694
C            5.12474246583452        0.95029659678661       -0.74536945543471
C            4.52973782768248        2.49602135402944       -2.64346726092716
C            5.05274007041695        3.40161450839375       -0.39494973842599
H            4.69343030837214        0.08068687789226       -1.23141648933810
H            6.17016290216687        1.02353747160825       -1.03591693233335
H            5.08306613599653        0.80251190553396        0.33233820109230
H            4.12532232587092        1.67239388988672       -3.22333742879428
H            4.00376889382800        3.40742619325790       -2.92115238098060
H            5.58013018357228        2.61461941894937       -2.89848903184213
H            4.98890618207844        3.27468404795420        0.68346774331099
H            6.10626512905587        3.43316211911365       -0.66328096894377
H            4.61079039436916        4.35572835646141       -0.67272414512948
