73
 energy: -114.123237722251 gnorm: 0.000410337328 xtb: 6.5.1 (b24c23e)
Si           0.32146340936794       -0.43295065697374        1.24524533029726
O            0.61975967861330       -1.63751111730413        0.21170414003198
C            1.05152086801388       -2.95876345055971        0.38958268271479
C            2.38443126147023       -3.16347163515376       -0.28547020813900
H            1.13817089242128       -3.17531112456167        1.46286931646472
C            2.77543745153443       -2.34006108066645       -1.33149295262083
C            3.21943394479610       -4.19689026417587        0.11867484081305
C            3.98887990202231       -2.54792363238350       -1.96364288515611
H            2.12292670390949       -1.53455765872975       -1.62951081244036
C            4.43005768587680       -4.40521033817476       -0.51730182049686
H            2.92177657568269       -4.83504509593518        0.93870054340519
C            4.81763227692511       -3.58106466696830       -1.56064170727158
H            4.28694895011594       -1.90408976811306       -2.77961234486127
H            5.07511399339998       -5.21005282429352       -0.19609769721504
H            5.76428111696866       -3.74364639562259       -2.05556410971179
C           -0.01380846049535       -3.90650391179637       -0.20189243957926
C           -0.22513286282260       -3.65614420725544       -1.61050775870789
H           -0.95103626324171       -3.73640774954608        0.33473384845190
H            0.30818285562016       -4.94025618007225       -0.05335242681861
C           -0.40166198595775       -3.42984266646499       -2.77202223557607
H           -0.55302787408710       -3.24270015118199       -3.79280803460164
Cl           1.71755202868552        0.73596268928591        2.25174768840136
Cl          -0.02782183531171       -1.66225995499938        2.99133210450081
O            0.45502882688377        0.58543645733185       -0.25536677739620
O           -1.25681319125173        0.15848372139231        1.49553091082052
C           -0.79784413739418        2.54185992017476       -0.05040015615313
C           -2.00224386108526        1.79057174734144       -0.07013506489603
C           -3.15568671801865       -0.30603608345660        0.25121505255850
C            1.59830056584393        2.59405181793481       -0.20234221302719
C            1.64448512355000        3.97823727227492       -0.10625753205573
C           -0.77588916084261        3.94786632627380       -0.00637497173677
C            0.40171919475472        4.64052250231798       -0.00665123688005
C           -3.15724976045509        2.25975435135437       -0.71894246194723
C           -4.23606083657002        1.44974303804323       -0.93704441877252
C           -4.23848311961260        0.09878862912973       -0.50677113341819
H           -1.71343714415092        4.47126977931500        0.08775665694855
H            0.36804720901322        5.71289358944203        0.07135579565220
H           -3.14752092679859        3.26250638047372       -1.11493154604406
H           -5.08164065387015        1.84656365612883       -1.46969124453214
C           -5.37219609994237       -0.85385313549264       -0.84893797166904
C           -3.04042046440714       -1.55305672326431        0.90612928876008
N            0.42088768034718        1.92276297675829       -0.15225477464044
N           -2.10752422672241        0.53532424873144        0.49367660727462
C            2.71646386778941        1.75386208046196       -0.41865056595535
C            2.96437253917223        4.73012340468472       -0.10187891709911
C            3.68132912236453        4.52003098775217       -1.44352147530458
C            2.76843307119130        6.23760147090439        0.09409758992993
C            3.83060719090991        4.21566877856498        1.05648365014853
H            3.06355827719815        4.88477432645615       -2.26206450182452
H            4.61914204752914        5.07022550368874       -1.44961942581814
H            3.89691209073637        3.47004529741311       -1.61264322264846
H            3.74286399831104        6.71994649410957        0.11915714500542
H            2.20262547621549        6.67635869188014       -0.72482928200475
H            2.26777728777070        6.45108211056676        1.03543816468587
H            4.77842120344562        4.74846697055261        1.07450639639237
H            3.32327707508994        4.37921431932489        2.00447630691377
H            4.03139184723545        3.15380851496059        0.96083380219222
C            3.57263506596584        0.94552009557010       -0.65918462627738
H            4.35223736344721        0.26575615421494       -0.83576005288226
C           -2.84788422391085       -2.54263282337390        1.56201208439931
H           -2.71900752359636       -3.41368707532236        2.13350712879154
C           -4.79684713045306       -2.08694643444958       -1.56092801175365
C           -6.10253194963299       -1.27023007065779        0.43587212217713
C           -6.39979161032943       -0.21158378245032       -1.78769619672336
H           -4.09116599739310       -2.61741900011702       -0.92968725391655
H           -5.60076017252026       -2.76948626727761       -1.82620503473956
H           -4.28351043982950       -1.78882967309409       -2.47275713209433
H           -5.43252573878728       -1.78057450134624        1.12031098246476
H           -6.50891229462372       -0.39460469679219        0.93801986144701
H           -6.92427322544776       -1.93953612850074        0.19256766159807
H           -5.93478082816983        0.12345861338318       -2.71196780644488
H           -7.15626685802643       -0.95022793007872       -2.04270038450377
H           -6.90396214444714        0.62661993842045       -1.31251087686973
