79
 energy: -120.455153299270 gnorm: 0.000443069861 xtb: 6.5.1 (b24c23e)
Si           0.37621433648167       -0.78182322396809        0.18211495149768
O            1.72751028390203       -1.54888513634194       -0.34135294138936
C            2.14631500102940       -2.88451347214221       -0.33122664190205
C            3.60578358204323       -2.90535137187894       -0.71416013769666
H            1.55015930097993       -3.44674279557073       -1.06613622636361
C            4.50149446320911       -2.11032308987532       -0.00883902942417
C            4.07340126957499       -3.70853964184904       -1.74331684597925
C            5.84576737068883       -2.11673497762137       -0.33479056939542
H            4.12867727033074       -1.48145770707767        0.78631099721212
C            5.42033897586320       -3.71818840441276       -2.06507170144210
H            3.38011004671472       -4.32741038572918       -2.29475017231789
C            6.30848291921667       -2.92218479191182       -1.36288451083962
H            6.53748585088001       -1.49525939210709        0.21684602212787
H            5.77640640886144       -4.34667123666169       -2.86849066253977
H            7.35873800568116       -2.92822181930061       -1.61636219006193
C            1.98123211330098       -3.54743551816576        1.05635293019123
C            0.63887866111848       -4.04332196617409        1.25462428654122
H            2.68498080997310       -4.38175395932081        1.13170644560252
H            2.22371791039214       -2.80824882261686        1.82296356253636
C           -0.47270899449898       -4.47263639883040        1.36390362846771
H           -1.45006690869065       -4.84052999824871        1.45485927525881
Cl           1.28974654779742       -0.23522270456939        2.01267706460644
Cl          -0.94789786756431       -2.06941257900161       -0.88955931963458
O            0.49088509114449        0.48813051117055       -0.94331379251870
O           -1.03064082497747       -0.02245974134866        1.02974361200832
C           -0.97272284511506        2.26094764930698       -0.39086417225495
C           -2.09678696469793        1.36116876071407       -0.51336038299661
C           -3.19071016210854       -0.59149495705737        0.38088619127581
C            1.43572668287384        2.50991241217465       -0.27941946510534
C            1.33034486116216        3.84398473843274        0.07257624294007
C           -1.10274989583493        3.61077151654720       -0.05908891097350
C            0.03111143729283        4.37571014683797        0.16118773345519
C           -3.17389227525495        1.54147550937899       -1.38635650789483
C           -4.23330981101347        0.65414131492360       -1.35118159324794
C           -4.29233133823428       -0.41583892670397       -0.44178407501483
H           -0.11054247273647        5.39908084360485        0.46044829670745
H           -5.02358441346718        0.79324944803833       -2.06828023747708
C           -5.47450991057539       -1.36828471428147       -0.38671501099403
C           -3.04016349323141       -1.58564755516672        1.37251826612363
N            0.30994202277093        1.77558986053262       -0.53797056201860
N           -2.13845500110582        0.26520199396814        0.31350980305980
C            2.63577962726137        1.79168034765506       -0.45218046218261
C            2.56361203324196        4.67762668664998        0.38167519463297
C            3.46106195609771        4.74523378141527       -0.86211395881185
C            2.20876359294128        6.11455550105988        0.77973607474604
C            3.31910417122864        4.03685436759533        1.55425983369850
H            2.92257245625662        5.20216014996334       -1.69025130591123
H            4.34043469679185        5.34862520512597       -0.64967601441207
H            3.78715684236732        3.75550516109663       -1.16492166589595
H            3.12635314902281        6.66041187289786        0.98717599455078
H            1.68827980816954        6.63212151731484       -0.02298491641493
H            1.59899364002376        6.13664764256855        1.67974016878067
H            4.19682429952477        4.63096826143831        1.79800558234451
H            2.67851081057780        3.99000873129110        2.43219557942696
H            3.63896176428176        3.02842082058910        1.31294389051844
C            3.58391148804540        1.08535182527280       -0.67408335141423
H            4.43373175514320        0.49249277881918       -0.83782991007325
C           -2.79754064938448       -2.32785702622660        2.28670668062425
H           -2.62590092368085       -3.00968289689379        3.06522934154155
C           -4.98432717075712       -2.78747566795127       -0.70399926121346
C           -6.10533537026884       -1.31786368315417        1.01235981119348
C           -6.56112469050787       -1.00390999060943       -1.40383996400212
H           -4.24479232760729       -3.11706295674599        0.01812853911532
H           -5.82145518016178       -3.48173870272961       -0.69032326299014
H           -4.52472356977521       -2.81308239814352       -1.68918844390244
H           -5.39246065532290       -1.61428505773507        1.77520248227618
H           -6.45153994178038       -0.30990190779515        1.23379940970894
H           -6.95816614807600       -1.99111048098683        1.05703722158801
H           -6.18457766370050       -1.06432582555053       -2.42196911642693
H           -7.38319887362653       -1.71013278489374       -1.31183889052721
H           -6.95652141365340       -0.00679892088247       -1.22236316079434
C           -3.15557922674196        2.61067762959923       -2.43653326771565
H           -3.92766470747222        3.35415950764962       -2.24428734928992
H           -2.19011974385087        3.10477566398273       -2.48307848744958
H           -3.36363172400184        2.16352256402003       -3.40703076651453
C           -2.44199602862112        4.24020097101895        0.18122294633818
H           -2.39624843705005        4.86427576787760        1.07125808125112
H           -2.71648392730951        4.88008492984711       -0.65627920218221
H           -3.21736576180930        3.49315919786072        0.31899727558863
