79
 energy: -120.461004418641 gnorm: 0.000551637700 xtb: 6.5.1 (b24c23e)
Si           0.22660563649480       -1.06579912870654        1.33907680319709
O           -0.78081656480232       -2.13691411636237        0.66801824197183
C           -0.93461898613376       -2.61249267787190       -0.64895642331046
C           -2.30033221693434       -2.22944864074322       -1.15722627680503
H           -0.15686215008421       -2.18286764109156       -1.28586625816903
C           -3.40291024043040       -2.36229400374673       -0.32261628807212
C           -2.47895531650261       -1.75985085155790       -2.45041675927374
C           -4.66738495774589       -2.03962532701563       -0.77887539690349
H           -3.25114618108689       -2.70729048485287        0.68843043331173
C           -3.74613116044535       -1.44092134555654       -2.90802389552197
H           -1.62223135409167       -1.64484090725578       -3.09955983500835
C           -4.84255121980273       -1.58414742239439       -2.07520618330240
H           -5.52045110176294       -2.14704282784713       -0.12499783691760
H           -3.87761111704273       -1.07925932851719       -3.91791641431178
H           -5.83107234943012       -1.33693677871377       -2.43362808720682
C           -0.78660453315744       -4.14730462305145       -0.62613689390282
C            0.52402793656508       -4.52208228295906       -0.14179081229704
H           -0.94742781402716       -4.53700853255599       -1.63517241212044
H           -1.54557680723436       -4.56131528723582        0.04214796315242
C            1.61179255019664       -4.78456043310933        0.28174543399008
H            2.55991661545209       -5.01948320407779        0.66366687086247
Cl          -0.47089984387475       -1.61434154879573        3.25658290127237
Cl           2.21645993856977       -1.41280788481788        1.80321701019977
O            0.72563410600360       -0.45061076183470       -0.38669776662548
O           -0.23522216887505        0.53759742610066        1.69514242022959
C            1.45669338478207        1.75064472040385       -0.13598047143561
C            0.07528559066907        2.13849290492780       -0.03184426549409
C           -2.12974064864543        1.55154786398826        0.79323085903422
C            2.97543164446691       -0.01832140940212       -0.72273590028848
C            4.07710246237699        0.81940143711004       -0.62581342777189
C            2.55312758628040        2.60846768594631        0.03361525631897
C            3.82798643416434        2.13260780386223       -0.19098862412455
C           -0.50790660643145        3.16073458937636       -0.78705479852945
C           -1.87401948205108        3.36951120447949       -0.71837029898714
C           -2.72562266461754        2.56117752493845        0.06039084248794
H            4.65019788011702        2.80202525003029       -0.00649329911732
H           -2.29010180269962        4.14551926717845       -1.33623471763023
C           -4.23105687512797        2.77301851020764        0.08680532702523
C           -2.79488504999961        0.62595905489695        1.62193388804920
N            1.73018949504721        0.43808043136111       -0.43720667286130
N           -0.76704095074604        1.40869416876322        0.78338399309465
C            2.99677897018741       -1.36410994552798       -1.15441594176756
C            5.48007712583126        0.31579697475914       -0.91787100345914
C            5.56871433078710       -0.13413992683431       -2.38332385731522
C            6.54145733898723        1.39881172041489       -0.69622479883467
C            5.79605731346303       -0.85463730796017        0.02340509832018
H            5.35284093850272        0.70053508063208       -3.04803076531469
H            6.57233511990501       -0.49310738114865       -2.59848090662273
H            4.86574783714162       -0.93443792823532       -2.59134030814273
H            7.52064720253850        0.98760163310675       -0.93072434325285
H            6.37658263057961        2.25666114444500       -1.34465901221531
H            6.55951026733085        1.72643726169187        0.34024584786487
H            6.80923935152777       -1.20865977405068       -0.15224581569597
H            5.71268877097968       -0.53484566430604        1.05933877003054
H            5.10726204642939       -1.67893279931607       -0.12803261905537
C            2.86252246233104       -2.48342265006054       -1.57166531931797
H            2.80191708894442       -3.47594024234034       -1.90524152218619
C           -3.22193066843599       -0.20966992461042        2.37483994598283
H           -3.62050287416524       -0.92455758731783        3.03072619211764
C           -4.93349078586160        1.50589371470547       -0.41810086525779
C           -4.66946971888590        3.08939032575160        1.52401604399587
C           -4.67042847621697        3.94040752849663       -0.80389915149427
H           -4.70797313805260        0.65254779956768        0.21329305982662
H           -6.01041118116358        1.65703533794267       -0.42429594215819
H           -4.61134442240887        1.27322631323748       -1.43115788641051
H           -4.42285280821059        2.27461523134145        2.19742539554419
H           -4.17575084538243        3.99256867316351        1.87731902009713
H           -5.74441568778203        3.25047050314973        1.55579203483714
H           -4.42266890399307        3.75753874485030       -1.84691451243696
H           -5.75010893035058        4.05135467814770       -0.73358150878518
H           -4.21868004386011        4.87626861998343       -0.48324088055652
C            0.28708928192097        3.97387495630433       -1.76434407651848
H            0.48493405344689        4.96678714792480       -1.36331011341137
H            1.23389124714348        3.49930013512853       -2.00324714361615
H           -0.28324771082893        4.09836507787674       -2.68268092788200
C            2.37717500461682        3.99486359817933        0.57509390856688
H            3.03726324425105        4.12918631295948        1.43044500140893
H            2.64823366392086        4.74189640525357       -0.16933714234869
H            1.35526480743040        4.16746681918506        0.89785281724786
