79
 energy: -120.465787879609 gnorm: 0.000615340786 xtb: 6.5.1 (b24c23e)
Si           0.37289029197444       -1.26422662342080       -0.21936652813362
O            1.69425712669031       -0.54274359817298        0.40858573952310
C            2.63802028203955       -1.04181997133223        1.32287695840810
C            3.50050675296456       -2.11888175940774        0.71773618837974
H            2.11092622649798       -1.44794603623910        2.19462452666866
C            3.77346069693406       -2.11581216234597       -0.64174192989566
C            4.04416025428225       -3.11235614418103        1.52017392350997
C            4.57018494720548       -3.10068241863011       -1.19697919199121
H            3.33428103358127       -1.34798775388296       -1.26069519450144
C            4.84795052826334       -4.09156441954321        0.96583684246559
H            3.82206727874265       -3.12630850053507        2.57732298040864
C            5.11177765214770       -4.08873005737911       -0.39359441235802
H            4.76342764665061       -3.10008566349103       -2.25975533101238
H            5.26189464552327       -4.86596253888043        1.59510531905924
H            5.73159195230939       -4.86029371228975       -0.82663034858677
C            3.51534859596823        0.14443112004190        1.76538205584013
C            2.71698314732684        1.14644628831112        2.43523517560959
H            4.29312643843151       -0.22211769670973        2.43984205518194
H            3.98587056252048        0.57669051425711        0.87900046917717
C            2.01279084989979        1.94915907518642        2.97568771551933
H            1.41806584577977        2.65892328008943        3.46762463061859
Cl           0.28545788979081       -2.29764781105406       -1.99446708795236
Cl           0.46717442826052       -3.05587990632252        0.98448306828416
O           -1.03472283947118       -0.84785940471211        0.66151259595850
O            0.12958894200699        0.19545191473927       -1.28396458211106
C           -2.13055647076759        1.10168476205059       -0.12120438771482
C           -0.90645925197987        1.84331833948223        0.00563155628872
C            1.34357428717011        2.11697711962858       -0.79537379945058
C           -3.17319981097599       -1.08551107066923       -0.22413981708870
C           -4.38299498139268       -0.54772469606739       -0.62420017360654
C           -3.34264237035495        1.66670308749930       -0.53949683164826
C           -4.43920943244825        0.85344942064641       -0.75602641223321
C           -0.75715526579639        3.02202418991656        0.75595600216933
C            0.41100718335440        3.74462588461224        0.65880907584051
C            1.47575864015699        3.35107489416063       -0.17425285442756
H           -5.34350156038488        1.32111325989241       -1.10376657325124
H            0.50171241595334        4.63295184591066        1.25967515010518
C            2.69579227427975        4.23364360563228       -0.38630567569016
C            2.31865380208211        1.51285939162194       -1.62048232399259
N           -2.12497497477055       -0.26299990727354        0.08703665841592
N            0.19757812948564        1.40190960416461       -0.68500131836430
C           -2.88845851260177       -2.45820885804687       -0.07798076817843
C           -5.57663795218311       -1.43460039723744       -0.94093021615975
C           -5.94101412286439       -2.25896383638261        0.30205515376335
C           -6.81349938407302       -0.62229697906985       -1.34044983413391
C           -5.22250594390932       -2.36181602415206       -2.11190720542546
H           -6.19430410212043       -1.59927439071637        1.12976070087788
H           -6.80176010886999       -2.88819848719893        0.08844968754747
H           -5.11670436063212       -2.89577679381635        0.60646628228835
H           -7.63871246745229       -1.30528661914309       -1.52878987152640
H           -7.11667795781884        0.05518620414992       -0.54529158042750
H           -6.63857748230218       -0.05515280637192       -2.25175025497833
H           -6.07540586326671       -2.99081308335788       -2.35592656728104
H           -4.96407219097938       -1.77506116293889       -2.99099665445181
H           -4.38060896884393       -3.00112953892350       -1.86639609399589
C           -2.50835152888298       -3.58918054035851        0.07498071630900
H           -2.19915429004895       -4.58418790348770        0.19721102790090
C            3.06493075684427        0.93566268125033       -2.36546645214364
H            3.75069135505213        0.46601700702858       -3.00653683538164
C            3.96941306410915        3.50646431011321        0.06283752512147
C            2.78921318844281        4.59483523129830       -1.87699828098469
C            2.60495666871399        5.54187139671264        0.40703959874127
H            4.14211604225812        2.61773795840894       -0.53514901351732
H            4.82779819357857        4.16555002836516       -0.04656826221741
H            3.88328617113615        3.21573535945923        1.10755202327223
H            2.89529229041390        3.70536173829057       -2.49040736943268
H            1.89503842319155        5.12891033419239       -2.19292355211798
H            3.65044157308472        5.23634374861115       -2.04849812418242
H            2.58399074109531        5.35114209981555        1.47722808313215
H            3.48429437935283        6.14615949422603        0.19570684332194
H            1.72846777332057        6.11985757841727        0.12288301447225
C           -3.46395485716836        3.12152012857368       -0.88222092903732
H           -3.99468871195888        3.65754065287306       -0.09684010589103
H           -2.49149902978642        3.58222283455377       -1.02498363795147
H           -4.03886822837117        3.23006088183009       -1.79969923287727
C           -1.80408783793996        3.45214005189179        1.73923080868895
H           -1.34299498895742        3.58738193375982        2.71635655735966
H           -2.24406746734266        4.40563839711852        1.45178717595995
H           -2.59037105213521        2.70948962497636        1.83104773013169
