79
 energy: -120.382794845550 gnorm: 0.000866601155 xtb: 6.5.1 (b24c23e)
Si          -0.33718404669898       -1.53813546821092       -0.64247132861642
O            1.19430795986140       -1.15747167288183        0.17562268237366
C            2.04499070446143       -1.97291423108176        0.68599267729782
C            3.08358865071033       -1.53272547515025        1.53034083249290
H            1.93940146413593       -3.03171332540079        0.47411988263501
C            3.14053871271196       -0.19758635499388        1.98962350298933
C            4.08199472579000       -2.43056602683853        1.96718178087226
C            4.14768414340786        0.21043672940489        2.83204251916016
H            2.35997822068730        0.48248698271901        1.68450015877507
C            5.08849671181587       -2.00418269414887        2.80020935225232
H            4.03971619326605       -3.45555118768986        1.63147773170831
C            5.13298058293574       -0.68346172360486        3.23704076120502
H            4.17400472537159        1.23159051567491        3.18789185084876
H            5.85085251775600       -2.69786047571366        3.12401461235907
H            5.92384809286054       -0.35674357318811        3.89519610277493
C            1.93396869245164       -4.54544100606346       -1.89896256101305
C            1.15438749675744       -3.51818998558604       -2.05065779152163
H            3.00772848507370       -4.44721635878932       -1.84620988755171
H            1.53599947151637       -5.54412386523483       -1.82209295631170
C            0.37888305542100       -2.49198746797607       -2.14585536243443
H            0.07457224289060       -2.13658222842338       -3.11944556324291
Cl          -2.38125821980550       -1.50429287236946       -1.52268437898052
Cl          -0.73141277514694       -3.21981275094524        0.62631288180162
O           -0.98852173175313       -0.38706213106056        0.80804895197976
O           -0.12180595915593        0.08209795037645       -1.56354612467069
C           -1.59603736125828        1.65320317690962       -0.01466477942108
C           -0.15750258786581        1.90981883206568       -0.16786634509106
C            1.86141711354557        1.21370528484273       -1.23203431154183
C           -3.23017368433838        0.10121252659815        0.73051157846432
C           -4.27282584844218        0.95189189011608        0.34959748619134
C           -2.58969786399521        2.53467838454641       -0.41586770083702
C           -3.91664771936617        2.16043913211617       -0.23555598998415
C            0.52065699438485        2.93132652568383        0.47381204618765
C            1.88504168858116        3.09048429226461        0.22618675144999
C            2.58008945141205        2.25585377807874       -0.64481049591826
H           -4.67596209151701        2.84068702232788       -0.58170870740556
H            2.39406607959649        3.88418594288078        0.74445437707306
C            4.04534118402878        2.48559898958309       -0.98231861375436
C            2.38411349341592        0.24603410783647       -2.11132160712817
N           -1.94380524824128        0.46454343587460        0.52389415711217
N            0.52674559757491        1.07534804333330       -0.98982274656736
C           -3.37258787189356       -1.14933174683313        1.36636824974888
C           -5.72126017032395        0.53483548956520        0.53259206246161
C           -6.00585320040099        0.30607037493367        2.02384273297124
C           -6.69954714565085        1.60009542294069        0.02582455561283
C           -5.96159942274886       -0.75190456041446       -0.26803188947716
H           -5.83178402752678        1.22115503543745        2.58762252683970
H           -7.04443317279317        0.01383332790594        2.15722997092809
H           -5.37439680210967       -0.47824176871093        2.42835043922226
H           -7.71616716253979        1.24809869632471        0.18391675889670
H           -6.58464113060855        2.53762128610056        0.56623071886595
H           -6.57267912079861        1.77662394103833       -1.03936952043756
H           -6.99840664992376       -1.06292115210133       -0.16555736205101
H           -5.74732447981547       -0.58308929102240       -1.32036459174709
H           -5.31881206403483       -1.55596951575828        0.07337199997153
C           -3.33577387731446       -2.21433265603804        1.92310746946617
H           -3.33450596473137       -3.16011790519131        2.37690846024483
C            2.70302306326370       -0.63416940444605       -2.86710941972708
H            3.02865238136223       -1.38925143912838       -3.51827518442812
C            4.88269040996005        1.24673969514850       -0.64108395980282
C            4.14642781069289        2.79559072339804       -2.48401317728288
C            4.63686633911434        3.67200892163541       -0.21342653239068
H            4.51595689596876        0.36405212086245       -1.15408019140780
H            5.91582686983807        1.41289352988967       -0.93711209896250
H            4.85648354371889        1.05361866729707        0.42850000485613
H            3.79990752127555        1.95710470646160       -3.08051901417519
H            3.54826738401198        3.67064528944077       -2.73196579930903
H            5.18066287321218        3.00169061402537       -2.74831253317386
H            4.59387570216008        3.50572660213529        0.86027370376190
H            5.68266827169876        3.78475172419080       -0.48909739769602
H            4.12702733941167        4.60125459641734       -0.45800754466691
C           -0.15783595503129        3.84189027651529        1.44972736041557
H           -0.25119648363555        4.84342811898131        1.03094237425659
H           -1.14688523141600        3.47932082806180        1.71336332688695
H            0.43965003938185        3.91782608164973        2.35628629342993
C           -2.27287174583719        3.83721221410693       -1.08290721432912
H           -2.89585295138058        3.95455038935748       -1.96713765293803
H           -2.48796697470148        4.66922765710970       -0.41296480882164
H           -1.23033115469131        3.88950644083628       -1.38224654202355
