79
 energy: -120.462195435289 gnorm: 0.000750240893 xtb: 6.5.1 (b24c23e)
Si           0.51338497580170       -0.56653583414551        1.33090556264550
O            0.94223110729994       -1.92874298704754        0.56814470339461
C            1.50778612237539       -2.18153204172763       -0.69334112934174
C            2.77154075899778       -2.99094669018149       -0.53391766932909
H            1.74245004931215       -1.23390606294869       -1.18822901946715
C            2.99104429143248       -3.75407241429146        0.60361168995424
C            3.72543571106528       -2.98225532966720       -1.54459030008900
C            4.15178468189949       -4.49761410767057        0.72882398533953
H            2.25493113695093       -3.74213549626797        1.39222947323088
C            4.88274719860107       -3.72925016911930       -1.41952058035589
H            3.55809296376627       -2.38289056657817       -2.42990706169604
C            5.09767664706058       -4.48949320823020       -0.28165689538120
H            4.31740624040353       -5.08479342202555        1.61991139977095
H            5.62082005421439       -3.71543617819738       -2.20888190330166
H            6.00339706662986       -5.06965564830377       -0.18294174873949
C            0.47818376819908       -2.95322007318383       -1.54709270321462
C           -0.53755407779381       -2.06330477595459       -2.06154770032934
H            0.99160971663122       -3.43879634707196       -2.38122317836429
H            0.01874811679409       -3.71829423232896       -0.91647889940905
C           -1.34250700997849       -1.29013763511816       -2.49326653689643
H           -2.05152253719303       -0.61998201974778       -2.87834615842418
Cl           1.82877975544544        0.79212547401377        2.19987256701595
Cl           0.25679553252905       -1.68104700170706        3.11482339141333
O            0.57805413320333        0.34875489957598       -0.28906817061703
O           -1.09019052887440       -0.01697497738285        1.52213612379321
C           -0.78601308372704        2.23471572657576       -0.09743739829653
C           -1.92838331875263        1.37089480059992       -0.21746679547622
C           -2.90084823018895       -0.79225208375332        0.29302724976736
C            1.60528333042468        2.41742986288526       -0.31764624156511
C            1.57355550735573        3.79423504795155       -0.15492547191159
C           -0.84139129405476        3.61373241200380        0.16331744456016
C            0.31886615791469        4.35766442325604        0.13862041001553
C           -2.99642864274855        1.60903799924173       -1.09266331993364
C           -4.00357687449785        0.66968534084508       -1.21985736330710
C           -3.97682249006012       -0.56759479642140       -0.54510952041859
H            0.24542180171913        5.40389891357185        0.38005052690799
H           -4.79510475437453        0.88069726930391       -1.91800710380967
C           -5.05619781641268       -1.61920387552320       -0.74633453109806
C           -2.65428465470137       -1.97162391963983        1.02478959144615
N            0.46448057206912        1.68581603416333       -0.25845792895050
N           -1.97073889423584        0.19047660793495        0.49780819908892
C            2.75861965356572        1.64098703884240       -0.57823625179653
C            2.83999194545154        4.62962967366938       -0.22410986588275
C            3.48906350876491        4.46337590818019       -1.60583463064971
C            2.56019353694484        6.12221945877554       -0.01734685327552
C            3.80231293768542        4.16947365746256        0.87962089731962
H            2.80549972007942        4.79367867020979       -2.38611320947652
H            4.39229145231016        5.06615436384148       -1.66355591509863
H            3.75542543641050        3.42812538079990       -1.79311721705570
H            3.49354298969251        6.67316065298929       -0.10882935317288
H            1.87158819402084        6.50471501690041       -0.76789009403178
H            2.15848566554430        6.31535604438696        0.97435022787891
H            4.70833562364300        4.77065045236141        0.85618392938819
H            3.33482610824371        4.28205683874579        1.85499009290642
H            4.07301321002007        3.12593775074264        0.75666806349506
C            3.64139348858360        0.86574268460619       -0.83297024473114
H            4.45666801801304        0.23566546224706       -1.03174870653825
C           -2.32033870324600       -2.90604974506817        1.70479738416656
H           -2.05513026554489       -3.73144322454830        2.29540831712186
C           -4.42993134989199       -2.89795213195730       -1.31969117643588
C           -5.72460293020933       -1.91431396500344        0.60437286582274
C           -6.14787557572718       -1.15344089203171       -1.71622426404874
H           -3.68988767557328       -3.30913360275365       -0.64091828561816
H           -5.20302121393872       -3.64523890039267       -1.48417251865737
H           -3.94136444993650       -2.68989279556143       -2.26936280172016
H           -5.00435907270712       -2.29094935389836        1.32394473063334
H           -6.17557369610740       -1.00916099926548        1.00670870564142
H           -6.50597228442494       -2.65968698603478        0.47578010552808
H           -5.74538002213195       -0.97192056996409       -2.71014328480408
H           -6.90089719467127       -1.93348975427279       -1.80217815515112
H           -6.64126851900539       -0.25356464184623       -1.35592459835517
C           -3.02701984422162        2.80517852638948       -1.99742633096699
H           -3.73992441615765        3.54358309998554       -1.63393269578323
H           -2.05002329047098        3.27194602165094       -2.07678795818023
H           -3.35035267669773        2.50249910464075       -2.99189178681414
C           -2.11645493752040        4.27349572148863        0.59480603850423
H           -1.93993207470669        4.80991166724723        1.52585571016462
H           -2.45065846361310        5.00033620333616       -0.14382573611014
H           -2.90403602297383        3.54551224542730        0.76168487716191
