79
 energy: -120.459476085720 gnorm: 0.000762837945 xtb: 6.5.1 (b24c23e)
Si           0.52956870862654       -0.46299796097800        1.26613589905858
O            0.71945694498272       -1.70297141628048        0.24602429765441
C            1.29195224364251       -2.97256277340049        0.39761295950138
C            2.62617282551887       -3.03995522885462       -0.30275402864621
H            1.42302217853072       -3.18823089353955        1.46699813996665
C            2.93936458568773       -2.14138833619905       -1.31220904875968
C            3.54291937010927       -4.02421370647246        0.04367735251229
C            4.15535661945939       -2.22867944316164       -1.96713111918832
H            2.22538698429047       -1.37338330450631       -1.56489663616970
C            4.75668616684003       -4.11047779010093       -0.61368624337980
H            3.30634613768020       -4.71998900711921        0.83637824931229
C            5.06541802213445       -3.21302799622302       -1.62226801323680
H            4.39140011015210       -1.52926555758276       -2.75716414587688
H            5.46536603598235       -4.87745826507420       -0.33676886556249
H            6.01433247591539       -3.28071302449892       -2.13470880864793
C            0.31237553924503       -4.01264187545813       -0.18695695251106
C            0.04058556535624       -3.75196736841103       -1.58326462954788
H           -0.62229201742950       -3.95341308089487        0.37734318420804
H            0.74210411902811       -5.01066471238233       -0.07276912152881
C           -0.18158643637950       -3.51076333219788       -2.73396045233859
H           -0.37687329478893       -3.31346243483419       -3.74540610905458
Cl           1.90927565695963        0.82197448313275        2.14932611366870
Cl           0.43004326189767       -1.65645866163811        3.08008653926466
O            0.53612694355747        0.51762011910346       -0.27508014610917
O           -1.06516190905000        0.05257427271415        1.59827981546327
C           -0.94358656746104        2.29812483729662        0.00221091181182
C           -2.01178201479596        1.34314190537418       -0.14727091961461
C           -2.82661989466357       -0.87673994213534        0.38443251118736
C            1.42646938818191        2.65975745216098       -0.20926584697437
C            1.29184609052326        4.02288233196880        0.01175372950384
C           -1.10856066152009        3.66032982760636        0.28394897684866
C           -0.00346384483367        4.48688737418793        0.30310250383711
C           -3.04822531153239        1.47430320421511       -1.07545369715026
C           -3.94096640006301        0.43208866469070       -1.25709914459770
C           -3.84436193032661       -0.78003264919942       -0.54695165095240
H           -0.15706543280443        5.51876428590408        0.56711325644202
H           -4.69746249009531        0.55173837695655       -2.01224817978251
C           -4.79381017291816       -1.93979304891421       -0.80432304736556
C           -2.58074635931122       -1.98233978334985        1.22283516046469
N            0.34166354660449        1.84442375605820       -0.17250067908649
N           -1.98018826563044        0.17907498698495        0.59132770656826
C            2.62965946607658        1.98845473236866       -0.52549294763816
C            2.49489061840130        4.95061104692036       -0.01260692647998
C            3.14028287360793        4.91458162840398       -1.40539352044159
C            2.11192069581906        6.40411549900733        0.28679205864176
C            3.49877558899368        4.49681493890363        1.05604025734874
H            2.42679932686282        5.24040587144653       -2.16018939810718
H            3.99690565773040        5.58382451683582       -1.43164794646176
H            3.47791465552664        3.91406561555685       -1.65548535063561
H            3.00594053812638        7.02175224365323        0.24098628265691
H            1.40414612948019        6.78781453200619       -0.44486496782604
H            1.69143468418135        6.50432598037286        1.28441654902086
H            4.36051913726618        5.16016549577722        1.06020594574672
H            3.03579070013021        4.52268338947163        2.03971145551429
H            3.84004203263056        3.48345359003712        0.87226928585389
C            3.56789451024525        1.31061052739614       -0.84972564881933
H            4.42188397488617        0.75392812785194       -1.09728574899851
C           -2.28981641990017       -2.83992139217843        2.01560725194059
H           -2.05658389707649       -3.59947474615419        2.70112728881591
C           -3.98581600241395       -3.17143474197288       -1.23740713209248
C           -5.58504532239376       -2.24270298568993        0.47626686990107
C           -5.80290576667398       -1.62770396239194       -1.91499765609419
H           -3.31942791757295       -3.50312260680358       -0.44835361082854
H           -4.66015226372142       -3.98823812390029       -1.48382949112436
H           -3.38441348473118       -2.94246336574472       -2.11442390472850
H           -4.92251930979360       -2.51104935513177        1.29307987310348
H           -6.16685838756371       -1.37238872806608        0.77367572620497
H           -6.26890127946925       -3.06973734045927        0.30061140208029
H           -5.30195874189980       -1.43237519934223       -2.86018643203520
H           -6.45243129985355       -2.48885167623022       -2.05452635471556
H           -6.43028257272152       -0.77817657428777       -1.65509889071849
C           -2.44331677202371        4.21634294580331        0.67834334291810
H           -2.81331471155333        4.91005029926629       -0.07499411006147
H           -3.17354968260227        3.42637674766133        0.82391165927277
H           -2.33954429361980        4.76891334168712        1.61059586740352
C           -3.15793000551730        2.66954902232273       -1.97352303303703
H           -3.41656033428916        2.34704802475538       -2.97988136572255
H           -3.94847317747597        3.33393182640169       -1.62744833055035
H           -2.22691146439914        3.22642656950643       -2.01390417049879
