79
 energy: -120.460811603095 gnorm: 0.000510639913 xtb: 6.5.1 (b24c23e)
Si          -0.23787932857469        0.88654579548655        0.58873183933158
O            0.26911046072176        1.87503710167175       -0.59258270063844
C            0.37305456706001        3.27749352153878       -0.55971123697999
C           -0.96786006208928        3.92103222464715       -0.31470321095561
H            1.06166693354485        3.56345167727268        0.24481291912754
C           -2.11334618318734        3.35941831439868       -0.86015780075172
C           -1.07065422269493        5.07256906950734        0.45216365104632
C           -3.34984374141594        3.93388974585625       -0.62915572374704
H           -2.02630134683705        2.45205966199936       -1.43899060048199
C           -2.30681344398502        5.65286475767564        0.67295091694089
H           -0.18209245233420        5.50276166400478        0.89005229292869
C           -3.44854621078123        5.08370474350588        0.13503415148272
H           -4.24109086172990        3.48076305481896       -1.03843692074901
H           -2.38061511587872        6.54489442274822        1.27750946859936
H           -4.41465784746220        5.53080863257805        0.31870707591817
C            0.93573064569464        3.73809484580853       -1.91688733686456
C            2.34217053108858        3.43089748920485       -2.05010496384058
H            0.79082162964386        4.81803271775439       -2.01029121872627
H            0.37438462906363        3.23354401630528       -2.70659215347948
C            3.51160284215514        3.19433461684639       -2.14170565574256
H            4.53505652951426        2.98891001139331       -2.24168244010007
Cl          -2.18800796961654        0.64046720222146        1.28997729855404
Cl           0.23642343557928        2.19296843871176        2.25847634933297
O           -0.53840568827439       -0.28102680851263       -0.78524635271444
O            0.84752544164731       -0.22344234268610        1.29489252902778
C           -0.25893184222156       -2.43673101681514        0.07958282674341
C            1.16119212126340       -2.20925031175058        0.04588188234086
C            2.95315845729930       -0.61259081157045        0.37869523487953
C           -2.41479933723765       -1.63831557943391       -0.62869115492093
C           -3.05199723449313       -2.77748911772147       -0.15866770006149
C           -0.87730881776570       -3.57587273854199        0.61309027817168
C           -2.24540363813954       -3.71710153222138        0.50797738728607
C            2.08148422202570       -3.08410727459336       -0.54019724970631
C            3.41369718870503       -2.71966668822975       -0.62271903420734
C            3.88542912468024       -1.46852136652643       -0.18074858869897
H           -2.69496837433225       -4.57814897050374        0.97091036712750
H            4.08800325712935       -3.40638801325270       -1.10333536051740
C            5.34371799064610       -1.06302653827318       -0.32794362099677
C            3.20580912459588        0.69248472344694        0.84707620214977
N           -1.07644847832555       -1.47332480186549       -0.46325090112097
N            1.65918695089618       -1.02415797187724        0.54319154344218
C           -3.03746422504844       -0.59707459905223       -1.35350778313684
C           -4.55158058876135       -2.97129888530275       -0.31219122348279
C           -4.90946643542915       -3.03741118269636       -1.80391656238777
C           -5.03774232114161       -4.27006221858751        0.34076551256682
C           -5.28127703329004       -1.80446565288390        0.36708577925591
H           -4.39955202052408       -3.87487696883476       -2.27659630115832
H           -5.98136760184373       -3.17921442350021       -1.91935897938200
H           -4.62560515848570       -2.12447370523750       -2.31679089709911
H           -6.11224197208064       -4.35684738371683        0.19639611720392
H           -4.57017923636083       -5.14257309906372       -0.11029567382976
H           -4.84655866690466       -4.26883349195460        1.41099110048521
H           -6.35692088299996       -1.94247244491803        0.28526813666126
H           -5.01502598121473       -1.75971642597286        1.42032507141519
H           -5.01612212351155       -0.85474356969886       -0.08436641243297
C           -3.46270771796362        0.28929648205995       -2.04508937053918
H           -3.89024711826908        1.05431088784052       -2.62205637495121
C            3.29310674518483        1.81105983947762        1.28100731131234
H            3.40721459655652        2.78322594626313        1.65785311030774
C            5.43849996336558        0.18520529096606       -1.21496227745418
C            5.92757192937771       -0.77342552937214        1.06252850006862
C            6.19279098300169       -2.16481343691333       -0.97145977650858
H            4.89323656191532        1.01319008524267       -0.77377293136853
H            6.48056510008596        0.47416606594734       -1.33502405986224
H            5.01955640581683       -0.02015411282659       -2.19832675539261
H            5.39377718068244        0.03535898538928        1.55153595293064
H            5.86280104934312       -1.66044286164972        1.68968406441692
H            6.97427379915793       -0.49199094959858        0.97327391844252
H            5.85475519455838       -2.38728650356024       -1.98090306834179
H            7.22414703435227       -1.82487203680913       -1.03427476301544
H            6.17872429879181       -3.07507636117036       -0.37645910991516
C           -0.10053842485362       -4.58633039129591        1.40201998803529
H           -0.06428328097947       -5.54188687281514        0.88119412692229
H            0.91256965670079       -4.24670228949185        1.59302866269514
H           -0.59658074220943       -4.75162817044905        2.35687015803162
C            1.65228512431256       -4.36463698274111       -1.19094255333295
H            2.16668867063734       -4.47744076685361       -2.14322794367629
H            1.91967394835085       -5.21812977451449       -0.56976606637076
H            0.58167440409670       -4.38260705673019       -1.36918391553796
