79
 energy: -120.464687075874 gnorm: 0.000537756412 xtb: 6.5.1 (b24c23e)
Si           0.32500757522443       -1.47849450074669        0.52820500233549
O           -1.28299705133713       -1.37120161716140        0.28184888720868
C           -2.23978467978121       -2.31746140717630       -0.11278012627787
C           -3.06299603764886       -1.79512939694782       -1.26546238623424
H           -1.72851151025632       -3.23776548412775       -0.42534092860652
C           -2.90305761909097       -0.50220804533651       -1.74067867235067
C           -4.00721297479043       -2.61864302977187       -1.86963333829664
C           -3.68428216545306       -0.02956310040439       -2.78091140386402
H           -2.15188381640123        0.13105652755636       -1.29869578287925
C           -4.78884862441732       -2.14690748547983       -2.90754446538227
H           -4.12098820854717       -3.63915301567957       -1.53402855944357
C           -4.63593029968122       -0.84722839065673       -3.36253220723728
H           -3.54584214404909        0.98167404474479       -3.13743729375907
H           -5.51860243115516       -2.79695010135763       -3.36768145177113
H           -5.24850398251066       -0.47976114454814       -4.17257460711976
C           -3.14709169387289       -2.64403399668497        1.09270901361016
C           -2.35677480272655       -3.17671390504212        2.18129095161965
H           -3.89981771874208       -3.37440405766757        0.78950728316944
H           -3.64916261403455       -1.72817480481508        1.41551994869986
C           -1.64947960234562       -3.59998412868101        3.04841339299077
H           -1.03052922535587       -3.97192918814478        3.80894549750852
Cl           1.30306061198325       -2.08872862615095        2.22668882832541
Cl           0.61947194053662       -3.35968569435666       -0.48595230236359
O            1.16662920850175       -0.74257918379274       -0.77236472214286
O            0.28028604112742        0.13739512370194        1.38249418549859
C            1.59307940310530        1.56861771444464       -0.47539376452954
C            0.18922665465114        1.79351874518391       -0.26084251802143
C           -1.69522512113676        1.34419013173990        1.16755247238189
C            3.38378396982251       -0.06214056143386       -0.56305287283881
C            4.35189234864991        0.92616294368181       -0.55996861206651
C            2.55496803584593        2.58599318627728       -0.47416331317243
C            3.89671872932171        2.25865231392187       -0.53789645903411
C           -0.61275259676236        2.67098393991615       -1.00735473758616
C           -1.92013770921872        2.88705957365615       -0.62617445490492
C           -2.48970669512073        2.26784992171321        0.50337930097949
H            4.60727526433067        3.06561489018239       -0.50181815927822
H           -2.51875712437297        3.53698491779452       -1.24042427475509
C           -3.91209642218641        2.56183614486566        0.95084173651975
C           -2.08062373055576        0.58250481408254        2.29290688814966
N            2.05847260115127        0.27482052146666       -0.59341942960306
N           -0.41939712697901        1.11243687483547        0.76905651139485
C            3.62364454490307       -1.45125099260836       -0.55896826532046
C            5.83258799351222        0.58124347768369       -0.54348270449781
C            6.17888820115425       -0.23238106594146       -1.79865852534230
C            6.72004447120744        1.83097386258722       -0.53719529126172
C            6.15026626749454       -0.22727538968506        0.72236791496329
H            5.96024834250079        0.34637777014624       -2.69410982671388
H            7.23813594889274       -0.47813053958740       -1.79853148689260
H            5.61128396406925       -1.15666466578763       -1.83645120532331
H            7.76315609686100        1.52308348931530       -0.53848419977743
H            6.55234196528785        2.44165300405790       -1.42152748358725
H            6.55294976402477        2.43117042985659        0.35415993332468
H            7.21107718645156       -0.46475629500736        0.75207056728212
H            5.90143125086920        0.35097930001102        1.60987056887168
H            5.58788501777045       -1.15502281090777        0.74901838930719
C            3.68758912611472       -2.65254955693268       -0.55590980947797
H            3.76850610489441       -3.69841461302890       -0.54468388956580
C           -2.26628938060181       -0.10147166143788        3.26374059921682
H           -2.48078449317454       -0.70473391033426        4.09465502831883
C           -4.74448399900223        1.27262192633281        0.90872215726940
C           -3.88215139952200        3.12875181251126        2.37793097261399
C           -4.60027679759845        3.59216107331250        0.04910703420322
H           -4.71745504110509        0.83559305396044       -0.08785508533944
H           -4.36506047064504        0.54308045948057        1.61696903824208
H           -5.77899611870004        1.49183641496364        1.16326842543843
H           -3.43040476149011        2.42493534814640        3.07046462607144
H           -3.31149545713566        4.05523021694302        2.40350484112124
H           -4.89481388151618        3.34001553615546        2.71327366458821
H           -4.70045821715338        3.22043647513215       -0.96786783224654
H           -5.60013365783404        3.78519035191813        0.43108225271796
H           -4.06017344166238        4.53627759004608        0.03963096725191
C           -0.11393018902809        3.28549236452483       -2.28040712419415
H           -0.03787581196450        4.36764548176606       -2.18733534866120
H            0.85413887093855        2.88293905056278       -2.56164232609466
H           -0.82150923225171        3.07415176159713       -3.08082025540485
C            2.18356781931458        4.02592922871978       -0.28249874195661
H            2.88783044352225        4.49433910096161        0.40191389743120
H            2.23631454763512        4.56403710049263       -1.22782396566910
H            1.18230176724435        4.13011335647125        0.12380543222510
