79
 energy: -120.460010592090 gnorm: 0.000790433415 xtb: 6.5.1 (b24c23e)
Si           0.25109068031895       -0.89883090078528        0.22801041543611
O            1.13809146151093       -2.23858081658800        0.39934624284991
C            2.35687922160352       -2.51775708883793        1.03734821396977
C            3.50258635225640       -2.34474252966384        0.07324138819298
H            2.49371051460535       -1.84495597057436        1.89115313818135
C            3.31775429694904       -2.57666882900510       -1.28282532373241
C            4.75684313115286       -1.96948604036486        0.53692050349301
C            4.37422305045123       -2.43500130242834       -2.16517437230813
H            2.33831838133537       -2.85381030801041       -1.64060541929406
C            5.81414641019982       -1.83284214747268       -0.34528490531718
H            4.90025696128181       -1.77618841406352        1.59016658348768
C            5.62525919573345       -2.06582629149969       -1.69840871408279
H            4.22038880078847       -2.61242197538348       -3.21954956108632
H            6.78659913834986       -1.53781892453156        0.02229752089108
H            6.45088715209256       -1.95554876239044       -2.38705187004141
C            2.29358840459312       -3.97223856423443        1.54222580751550
C            1.37147836606539       -4.08623300077754        2.65067151360578
H            3.29191466686807       -4.28591190556613        1.85865538385687
H            1.96131194417083       -4.60804404277662        0.71818130511066
C            0.61219646292854       -4.13345403154063        3.57396914284608
H           -0.04582312633638       -4.18914435331705        4.38877879210762
Cl           1.37609864491503        0.26467486582897        1.72637340251383
Cl          -0.89013873524927       -2.04819268726800       -1.20475277677725
O            0.39230389506321        0.29952880575152       -0.98656190939639
O           -1.12371845539400       -0.31971598710426        1.07270980398849
C           -1.01843599669973        2.04815914767472       -0.29348208078411
C           -2.15999480180619        1.16108175413064       -0.41844167764369
C           -3.22621912411438       -0.90399114680235        0.25595386702581
C            1.37743798445873        2.34960150954036       -0.47995759644491
C            1.29657275237212        3.66428131341632       -0.05182400007142
C           -1.12524656960876        3.36951027468536        0.14073936257176
C            0.01493333822071        4.14928152322357        0.25601307104797
C           -3.24877984921186        1.42444086049538       -1.24899050442780
C           -4.30300273190108        0.52638342630687       -1.30263046062039
C           -4.32619670231932       -0.65802089991852       -0.54922797360048
H           -0.10328293903617        5.14672161571420        0.64142343977040
H           -5.10272230313204        0.74099840013347       -1.98960343184473
C           -5.46525240582059       -1.65795872344870       -0.65136912361526
C           -3.02161151310938       -2.04171641263463        1.06343570077951
N            0.24314286240154        1.60376024256177       -0.62303419455802
N           -2.21640894165469        0.00903924050829        0.33279505367165
C            2.55795281896211        1.65822785960883       -0.82241410872197
C            2.54401717830748        4.51452262883655        0.12144787949992
C            3.26839541003541        4.64084768353679       -1.22618094448952
C            2.21833719842674        5.92951915228372        0.61189377912625
C            3.45604920559223        3.85134517346428        1.16248618435530
H            2.61811074284772        5.11212861488079       -1.96090143586975
H            4.15750221057379        5.25600922949934       -1.11002908374626
H            3.56997647586563        3.66860862629514       -1.60255168193219
H            3.14369828263897        6.49384051504652        0.70213121712362
H            1.57453870867850        6.45523457419471       -0.08987987573797
H            1.74634071015107        5.90900190712308        1.59105352409917
H            4.34515705275822        4.45840681953868        1.31697548000673
H            2.93202790848581        3.75286742731799        2.11029320440348
H            3.76127566534803        2.86012157776035        0.84379173947987
C            3.48119192134353        0.96226937979537       -1.15478826750371
H            4.32281833953928        0.39133909703901       -1.41286543167733
C           -2.71734545718785       -2.94425418904112        1.79781897738525
H           -2.48486617133057       -3.77341205487236        2.39662955629896
C           -4.91242392035409       -2.97702725567162       -1.20760549836464
C           -6.08441890052613       -1.87596456874354        0.73637134229948
C           -6.57789304583674       -1.17671230532764       -1.58887549084429
H           -4.14689299756393       -3.38707008050937       -0.55797418037692
H           -5.71552142773943       -3.70351373059886       -1.30659420530823
H           -4.46602465218041       -2.81242628566237       -2.18496411952105
H           -5.35218957508124       -2.26600822387830        1.43577162251325
H           -6.47424226510133       -0.93791620883705        1.12740859588213
H           -6.90514760080891       -2.58580920792717        0.66609366686604
H           -6.21374663215687       -1.06189674409048       -2.60667875706229
H           -7.37315555818800       -1.91848962000726       -1.60363190735127
H           -7.00529779790565       -0.23601507239039       -1.24838314769177
C           -2.43258036769165        3.94732406539460        0.59271179135646
H           -2.78234542333632        4.69543815414586       -0.11733156512280
H           -3.19440551133762        3.18178365328785        0.70045124934154
H           -2.29720396412023        4.44179945779913        1.55260708331078
C           -3.26554664149851        2.60312214562493       -2.17497543871929
H           -3.51762961840366        2.26804767890651       -3.17922821844693
H           -4.02490247952563        3.31992501187371       -1.86577959600923
H           -2.30201969723641        3.10152719142964       -2.20771769635651
