79
 energy: -120.382804871544 gnorm: 0.000936667649 xtb: 6.5.1 (b24c23e)
Si          -0.33679140893982       -1.54028515638468       -0.65042528985669
O            1.19255885747496       -1.16199917271211        0.17023908214186
C            2.03877015759265       -1.97629491801769        0.69002867361771
C            3.07456087275691       -1.53248810143393        1.53586136529565
H            1.93207498759972       -3.03613505138793        0.48419845697783
C            3.13266552221124       -0.19402238046111        1.98522042194757
C            4.06896638235109       -2.42921886644735        1.98393233437735
C            4.13758375585120        0.21845338105696        2.82808065276308
H            2.35461904826212        0.48525374719612        1.67220564856843
C            5.07315152471859       -1.99853321835017        2.81756015640930
H            4.02522848952152       -3.45688475236262        1.65672658646138
C            5.11931638268991       -0.67440620814359        3.24377800190324
H            4.16494482475608        1.24239285470766        3.17576590059934
H            5.83183924733884       -2.69168403047548        3.15098955940937
H            5.90857181671555       -0.34422300389763        3.90213866748622
C            1.96345433099226       -4.52209435057026       -1.91961447029858
C            1.16942572768363       -3.50541331307127       -2.06559482241079
H            3.03568174104314       -4.40895525615467       -1.86914906150527
H            1.57920086950262       -5.52516624061144       -1.83205115231212
C            0.37634286598418       -2.49210771431071       -2.15656841631863
H            0.05895315010326       -2.14393326581864       -3.12866942603304
Cl          -2.38178222088698       -1.49982884228479       -1.52235064085199
Cl          -0.73404259249948       -3.21909614344179        0.62015260212640
O           -0.98892053158800       -0.38741292271369        0.81316551505569
O           -0.12618783171627        0.08017289282803       -1.56149106147117
C           -1.59504849773628        1.65254019609446       -0.00937147185553
C           -0.15631803847354        1.90754821301633       -0.16458793363815
C            1.85977287808144        1.20942040300514       -1.23309046931920
C           -3.22972455615118        0.10173964581989        0.73563358771793
C           -4.27188734114910        0.95294123494396        0.35451519990271
C           -2.58802711670862        2.53534115365696       -0.40947745340201
C           -3.91516210228874        2.16187258640398       -0.22932929700539
C            0.52401868079678        2.92809548281137        0.47602600340197
C            1.88817395842620        3.08629811441279        0.22516756322419
C            2.58043925322351        2.25117435268600       -0.64733441090846
H           -4.67413350602308        2.84288851718718       -0.57474073217188
H            2.39894754827463        3.87963097603673        0.74227156043521
C            4.04518155563670        2.47935045908680       -0.98807423314795
C            2.38077207773029        0.24049778777821       -2.11178880725798
N           -1.94297651717096        0.46376289034187        0.52873525096593
N            0.52541832257282        1.07265028224278       -0.98807454224708
C           -3.37225962019093       -1.14847815187862        1.37216484201340
C           -5.72047537078576        0.53506757997353        0.53419520796970
C           -6.00863474209904        0.30266280869252        2.02414397553942
C           -6.69835260316202        1.60072745205113        0.02746197247705
C           -5.95750555278179       -0.75012684993441       -0.26995319012867
H           -5.83809096828901        1.21694426732198        2.59029677561816
H           -7.04697931691153        0.00796341112118        2.15395620426212
H           -5.37671347871546       -0.48117652047353        2.42882881467937
H           -7.71510153919194        1.24803659512852        0.18316273798145
H           -6.58480871846210        2.53739620807321        0.56966139423218
H           -6.56969576565457        1.77912246490069       -1.03720728796463
H           -6.99471801752322       -1.06138994693190       -0.17252570579400
H           -5.73865887471781       -0.57933663492770       -1.32103121632799
H           -5.31607620903032       -1.55480987547275        0.07262022343411
C           -3.33446756500086       -2.21323888591149        1.92913025360621
H           -3.33162052334946       -3.15863684058831        2.38371446310967
C            2.69873977533212       -0.63852428226834       -2.86956160582276
H            3.02379890688920       -1.39429273504078       -3.52016855781802
C            4.88216672138792        1.24022834188794       -0.64683557157658
C            4.14327176946950        2.78737007325791       -2.49037400613072
C            4.63927814451942        3.66636882377995       -0.22214083593874
H            4.51341405041408        0.35707558774817       -1.15759957242976
H            5.91479519358998        1.40498757269960       -0.94542427302991
H            4.85815046592748        1.04886621776691        0.42313204513367
H            3.79399111631175        1.94878730030713       -3.08510973332309
H            3.54585178489702        3.66307406956264       -2.73785143413417
H            5.17717524034957        2.99151079571170       -2.75743601199730
H            4.59879641207476        3.50146655589212        0.85186364041339
H            5.68447055692998        3.77818271324613       -0.50049593366482
H            4.12931397329864        4.59556382320028       -0.46664691495476
C           -0.15120530800365        3.83887903543613        1.45397861914747
H           -0.23988988833087        4.84203052351866        1.03804501137189
H           -1.14187647631750        3.47974288551057        1.71616101971478
H            0.44607092359241        3.90961291508060        2.36112787298756
C           -2.26996664594108        3.83848711752315       -1.07479390917339
H           -2.89822838913319        3.96153856981143       -1.95446122807249
H           -2.47663966173303        4.66946316920697       -0.40088159231895
H           -1.22912236822500        3.88703758275320       -1.38070459186156
