79
 energy: -120.460307516969 gnorm: 0.000807479938 xtb: 6.5.1 (b24c23e)
Si          -0.16327915338773       -1.66307818532584       -0.52667270509995
O            1.42333131272171       -1.52760084799854       -0.20877172088960
C            2.39394751990155       -1.78684601643555        0.77889341906544
C            2.15091604637695       -0.92322457354851        1.99536958692028
H            3.33594217331199       -1.47260907931825        0.30239122791799
C            1.00051707396870       -1.06919414225291        2.76095806073599
C            3.06924000446702        0.05945775958818        2.34234784497856
C            0.77253617313700       -0.23681798442497        3.84258441052394
H            0.27563616265985       -1.82494046668386        2.50544211687872
C            2.84730384408626        0.88291333995646        3.43166729557032
H            3.97087534120623        0.17575467102161        1.75846912444911
C            1.69337455930395        0.73960200941262        4.18294036920327
H           -0.12814287232803       -0.35687877512431        4.42614657046257
H            3.57605807135447        1.63748592808193        3.69308448364465
H            1.51545407325478        1.38287713561432        5.03316467204905
C            2.52352940710670       -3.27413437622990        1.14547532428326
C            2.85141946575547       -4.05204241728583       -0.02918303010867
H            3.31367860034459       -3.37394585484899        1.89501062494870
H            1.58307255300195       -3.63934276435204        1.55958635449477
C            3.11580888074579       -4.65037762404770       -1.03080375891913
H            3.33244963483512       -5.20819976310582       -1.89188953972137
Cl          -0.80407573469441       -2.54620167680556       -2.26120257422731
Cl          -0.67525532264179       -3.37143571788576        0.68027438575950
O           -1.15037183399893       -0.77500896069439        0.56056899868240
O           -0.04039241611511       -0.14885139225506       -1.57372625213914
C           -1.36092702468594        1.53670452615061        0.06545348010883
C            0.06401124068411        1.64431756357088       -0.08096556230426
C            1.97787655832201        0.96793997313217       -1.36820484955409
C           -3.27261943481264        0.04279695550707        0.08086303573305
C           -4.16164947306790        1.09577695432232       -0.02926106449503
C           -2.24351159404473        2.61842582249445       -0.04810518480967
C           -3.60736834950949        2.39063371699673       -0.06207634568436
C            0.89053125684756        2.51554820031947        0.64704334261484
C            2.21814750909796        2.63950145964707        0.29998195084522
C            2.78962736955514        1.91908917848320       -0.76532457562005
H           -4.25232059880285        3.24405348352846       -0.17626870908591
H            2.82934044573114        3.29886408854260        0.89155346084494
C            4.21335159190538        2.16577504171383       -1.23968088507139
C            2.38367642868787        0.05854297905613       -2.37081531542572
N           -1.93214927403529        0.28843290187833        0.21246921698898
N            0.67347347862587        0.84925121303905       -1.02367855580703
C           -3.60540683764515       -1.32718334722816        0.08844905553061
C           -5.65871941399096        0.85686896482648       -0.14573302585984
C           -6.15039636634400        0.10040107392589        1.09661052826990
C           -6.45050550508482        2.16581368970052       -0.23897912809572
C           -5.94458871445327        0.04111059229894       -1.41432492307471
H           -5.95048820846118        0.68213748917126        1.99441352430888
H           -7.22262896843944       -0.06669144601523        1.02712788102087
H           -5.65792565555265       -0.86215243883020        1.19093552652792
H           -7.51137105890867        1.93360503686658       -0.29833065005594
H           -6.29427417201740        2.78697744575419        0.64007188038358
H           -6.18403161135376        2.72796642978250       -1.13096350881676
H           -7.01493094227465       -0.12292755116440       -1.51480719717027
H           -5.59437418492715        0.57820862899474       -2.29350215574994
H           -5.44929606866089       -0.92408303259086       -1.38115098135654
C           -3.74106656451330       -2.52277398225928        0.09538703017006
H           -3.88967955425068       -3.56138285883786        0.09742721950111
C            2.60651404687397       -0.76422975644417       -3.21772682812433
H            2.84198198607373       -1.47533773530054       -3.95198246687364
C            5.06852124853470        0.90148312574997       -1.08270408756525
C            4.16656149167338        2.58396657469991       -2.71768894089184
C            4.89359667203824        3.29307355326825       -0.45503160526318
H            4.62378665836872        0.05630660850402       -1.59853887044865
H            6.06009251061391        1.07503817379751       -1.49472904215393
H            5.17937417008174        0.64832250738006       -0.03066888641873
H            3.74758775425384        1.79461504787390       -3.33431670694506
H            3.55811742000624        3.47842119163469       -2.83736217121827
H            5.17079822359643        2.80240029825137       -3.07325158337915
H            4.99634997849183        3.03822516868809        0.59717532922609
H            5.89187029068510        3.45249983605177       -0.85638646523739
H            4.34293841351673        4.22646837197876       -0.54670824244820
C            0.38329858726619        3.22744487549647        1.86376478877714
H            0.40531190893309        4.30705654035556        1.72498643161425
H           -0.62732263093841        2.91785012507024        2.11023315501550
H            1.03101019075112        2.98625373039433        2.70537291738735
C           -1.75644662845163        4.01760806802480       -0.27785160846907
H           -2.38543046442329        4.50412478185705       -1.02036642555927
H           -1.81935760924196        4.60056641553676        0.63965481132907
H           -0.72947108669845        4.03047651930449       -0.62912630663074
