79
 energy: -120.462817856757 gnorm: 0.000608373024 xtb: 6.5.1 (b24c23e)
Si           0.17642132242222       -1.09403194753758        0.80744457740726
O           -0.76437417905843       -1.85135267343403       -0.26690254934859
C           -1.59593212436011       -2.97538089987399       -0.15316530685862
C           -2.98919104816464       -2.62144417021977       -0.60569082983281
H           -1.61735053225627       -3.31103184707223        0.89087917246479
C           -3.17895444554815       -1.67825900981799       -1.60627696484458
C           -4.09349579263977       -3.24328528137750       -0.03843600741121
C           -4.45582805384372       -1.35694033814044       -2.02990876998508
H           -2.31512783955633       -1.19272357387517       -2.03410891957721
C           -5.37050032122817       -2.92185100172313       -0.46367661152629
H           -3.94812776521458       -3.97463885042725        0.74402295015725
C           -5.55422213533393       -1.97731056666927       -1.45948617228442
H           -4.59646818449767       -0.62241401594012       -2.80952561063723
H           -6.22528483498890       -3.40659193347738       -0.01454175413345
H           -6.55136502907457       -1.72428693825969       -1.78885494241463
C           -1.01658756967903       -4.10119134609103       -1.03479029325482
C            0.29241625376590       -4.48687712653632       -0.55435136294260
H           -1.69376143972796       -4.95879136478171       -1.01226131327931
H           -0.93749835100219       -3.73208018957318       -2.06071911478866
C            1.37688950193265       -4.75989023096824       -0.12889491320284
H            2.32427502306455       -5.00082843395208        0.25117718822565
Cl          -0.71452798542925       -1.91942405425707        2.60371523533750
Cl           2.07654368973063       -1.65018880219390        1.43449403766838
O            0.83472055565403       -0.27532920306431       -0.69057408012456
O           -0.24903289308964        0.43563737447018        1.43768285047426
C            1.64339669373709        1.81842611294010       -0.04944007957251
C            0.27767556088775        2.26387879354037        0.01702696156862
C           -2.01169860405479        1.68341744729921        0.57048819760668
C            3.12426322416214        0.06159598129151       -0.76633375820505
C            4.25112663022872        0.81811121583138       -0.47846374779605
C            2.76170384812415        2.58271386651320        0.31730202775127
C            4.02706076126526        2.07389068811160        0.11290425030338
C           -0.19715739246734        3.42560186606689       -0.60221627115244
C           -1.55088475145270        3.71041460257695       -0.58142707145372
C           -2.49966206680344        2.84006588180528       -0.00951582728550
H            4.86211421645940        2.66703084904707        0.44337609401026
H           -1.87890380028385        4.60178168658675       -1.08656990355022
C           -3.99096385126357        3.13489065392879       -0.05309894591629
C           -2.79068715850870        0.65620429711278        1.13999283288731
N            1.88248425001445        0.55008196848342       -0.52204826415020
N           -0.66135342681660        1.46988659973793        0.64510738465090
C            3.11892625361687       -1.22576914362148       -1.35069853162217
C            5.64957691847860        0.28082662950772       -0.72992711534975
C            5.82624454207471       -0.01387547251776       -2.22631582660247
C            6.73673296275245        1.28019984191244       -0.31991888691346
C            5.84540527331796       -0.99790651278280        0.09606713696168
H            5.69438260717967        0.89661713499009       -2.80812394470255
H            6.82717882246365       -0.39674069136262       -2.41061620058459
H            5.10765721674513       -0.75152830389813       -2.56830956857124
H            7.71187462704095        0.85300783559761       -0.54238066342281
H            6.64748339736846        2.21324219149754       -0.87220147950043
H            6.70168591694936        1.48628051223566        0.74696839881614
H            6.84912467102567       -1.38785739921683       -0.05621763047863
H            5.71096799804748       -0.78431042894712        1.15375619071540
H            5.12697856570870       -1.76070800141353       -0.18474695479949
C            2.97744548997048       -2.29613231997977       -1.87875701909602
H            2.89581103398044       -3.24725768485095       -2.31332404415463
C           -3.33866862554563       -0.28987060334669        1.64198088062981
H           -3.84832769015759       -1.09477180625285        2.08017745767866
C           -4.70037484324633        2.04736476820616       -0.87137247058438
C           -4.54377236758682        3.17192737014036        1.37881087357965
C           -4.29582208867096        4.48946621811482       -0.70275075915404
H           -4.56493235670650        1.06618874690087       -0.42667736220656
H           -5.76584663146328        2.25908140887921       -0.92316632030553
H           -4.30412884208610        2.02473660320787       -1.88453426810802
H           -4.39908354806895        2.22108390198190        1.88132389479782
H           -4.04380034438554        3.94838217139182        1.95455537723988
H           -5.60862111108212        3.39155783024243        1.35804124235565
H           -3.98490508446050        4.51037215275157       -1.74462545368054
H           -5.36940382623077        4.66139108774271       -0.67395254511805
H           -3.81373552540662        5.30295611405631       -0.16549026798336
C            0.70257220655454        4.32324771369131       -1.39791280522105
H            0.90970895495229        5.24157751115282       -0.85078137850516
H            1.64343191446487        3.83714317176945       -1.63597136317120
H            0.20796612676326        4.59958310189209       -2.32708617967051
C            2.61019597312208        3.88776486446485        1.03898429238364
H            3.21917427452901        3.86884843407551        1.94120362184008
H            2.95957543187431        4.71613293601785        0.42470883699649
H            1.57777475101380        4.06574802968179        1.32288246051928
