79
 energy: -120.461968205045 gnorm: 0.000781608129 xtb: 6.5.1 (b24c23e)
Si           0.16587255117477        1.53224170099116       -1.11348080704785
O           -0.50068288728165        2.56413137134503       -0.04629822695091
C           -0.26678722967978        2.69964616255038        1.33733806824573
C           -0.79062420952435        1.52282859056560        2.11842634380984
H            0.81440113261323        2.78157167477549        1.50091282373304
C           -2.02582018217451        0.97048649062245        1.81049934339941
C           -0.04017359991330        0.97353856965875        3.15010565589819
C           -2.49541899263593       -0.12308835486711        2.51609999822676
H           -2.60664280109128        1.39282169093547        1.00297108803289
C           -0.50891223947297       -0.12158155763551        3.85197126922665
H            0.92566336524506        1.39636412491987        3.38648329407200
C           -1.73842784044456       -0.67385651829285        3.53480519672908
H           -3.45594455373411       -0.54984038799896        2.27036357275824
H            0.08795329031422       -0.54842220862862        4.64524704945456
H           -2.10646769484846       -1.52984184455887        4.08216955397220
C           -0.95687611363468        3.99703469658906        1.79810422100136
C           -0.25982025570295        5.15995506059928        1.29307782801191
H           -0.97672105173594        4.02282653997385        2.89153172102105
H           -1.98193643509416        3.99558641320808        1.42104227363018
C            0.35139993893027        6.09923504522524        0.87447739091911
H            0.86432304667028        6.93213193671843        0.49633188531205
Cl          -0.70638022640570        2.63193912870644       -2.69034332272979
Cl           2.07745470712181        1.59432419152552       -1.93257256660730
O            0.79244283502487        0.55246430296932        0.33225933851730
O           -0.58564974613091        0.11203375806627       -1.70612903229945
C            0.95200461224450       -1.69983418793884       -0.23388885837695
C           -0.48593127750522       -1.75968669586831       -0.23431643257839
C           -2.58782670799690       -0.80858901591954       -0.98068858703040
C            2.90561555575704       -0.38554029902333        0.27252624822618
C            3.76100647344591       -1.43606020757508       -0.02363018095149
C            1.79060075221605       -2.77354903483716       -0.57310128995930
C            3.15848314261449       -2.62087364929082       -0.48430852075525
C           -1.21662974857812       -2.72810037381058        0.46610879313229
C           -2.59520474084229       -2.75256357304955        0.38115256047863
C           -3.32269629983408       -1.80826381043967       -0.37196087154151
H            3.77330973600689       -3.44527702641677       -0.80137868080600
H           -3.11637785384510       -3.49989706083124        0.95330150281056
C           -4.83425736422925       -1.88882935361376       -0.52707224429607
C           -3.12181406507455        0.27758058593714       -1.70451634951245
N            1.56403079407948       -0.52522214092794        0.12769762449885
N           -1.21884907209075       -0.82055917459374       -0.93340266939648
C            3.29450956144449        0.87821333076499        0.77376358677363
C            5.26794392924979       -1.28832403326568        0.09678021768777
C            5.63980338040146       -0.98871191084682        1.55612395382847
C            6.01045372225114       -2.56199185926702       -0.32190045342068
C            5.73151024451271       -0.14863374637662       -0.82120962679756
H            5.31093176968902       -1.79997946109080        2.20322375218838
H            6.71885706692521       -0.89171173376678        1.64889516785734
H            5.18162142070900       -0.06581127468010        1.89654710384450
H            7.08012027599647       -2.40042830177908       -0.20965483121984
H            5.73377441953961       -3.40780180074780        0.30384710316002
H            5.82017409832803       -2.80523305173176       -1.36435564837222
H            6.81142806957217       -0.03725397168635       -0.75772855840658
H            5.46477322546712       -0.36693003576246       -1.85264298422470
H            5.26778016069705        0.79334493278420       -0.54777516344990
C            3.49403507491654        1.96111671212068        1.25634519116497
H            3.73061582415187        2.90796026756119        1.64218001277320
C           -3.44090639631868        1.25517550717937       -2.32874706134108
H           -3.73691453898439        2.09967096686248       -2.87581067996127
C           -5.51126549294051       -0.62463215540670        0.01899498599572
C           -5.15777447056917       -2.04871588499835       -2.02075114148475
C           -5.42658246676260       -3.09359233389920        0.21256605143025
H           -5.13138427295367        0.26749575197098       -0.46810116154845
H           -6.58359773137792       -0.68054510493786       -0.15373986611980
H           -5.34590088291965       -0.53361850009738        1.09038384376560
H           -4.81284583291762       -1.19048488688068       -2.58927589704399
H           -4.67879238037513       -2.94209998126530       -2.41659596347325
H           -6.23201779838019       -2.14509572439347       -2.15937149209428
H           -5.25858113159823       -3.02396309365504        1.28501610723248
H           -6.50123020834741       -3.11765769109103        0.04652372587354
H           -5.01092472632492       -4.02809416671526       -0.15684251169189
C           -0.54788915304482       -3.68816723166777        1.40385863120536
H           -0.61023326933474       -4.70710267979350        1.02515402633049
H            0.49464075950842       -3.43310902271485        1.56430104273156
H           -1.06085500052985       -3.66111327752831        2.36358849252019
C            1.24139181088990       -4.04544673913072       -1.14513912401202
H            1.78234273262770       -4.29158186094342       -2.05711797182817
H            1.37674164438799       -4.87236885022767       -0.44968440724182
H            0.18608281845990       -3.95307066266156       -1.38207145690856
