71
 energy: -114.718053080401 gnorm: 0.000957938594 xtb: 6.5.1 (b24c23e)
Si          -0.30678499794793        1.03097000800934        0.87839993043605
O            0.55888459671205        1.75729726780234       -0.26289849209565
C            1.51371258499918        2.79092437477001       -0.20166514030978
C            2.76216968566529        2.33960388520307       -0.91537966146785
H            1.74379496561782        3.01473484108179        0.84694177416361
C            2.67047057361491        1.47401453724115       -1.99705602802929
C            4.01060397735258        2.78118245366112       -0.49953944198444
C            3.81402187489797        1.04797954850331       -2.64855277241595
H            1.69629807303041        1.12703961172980       -2.30767280474843
C            5.15258603288641        2.35901451831893       -1.15603098284638
H            4.08488840431223        3.44456030056939        0.34902017217918
C            5.05743000082511        1.49005930985871       -2.22989169772908
H            3.73561159405934        0.36943498833620       -3.48636794669925
H            6.12114250148069        2.70173125399430       -0.82313470555451
H            5.95031710302857        1.15446581461274       -2.73726497230037
C            0.92069980973568        4.04612749241783       -0.86909016774881
C           -0.23287479648154        4.50886869875587       -0.12772673782334
H            1.68476379579678        4.82668505091453       -0.90386348435227
H            0.61918406147986        3.79076315563205       -1.88819270419530
C           -1.18664991567513        4.83874941285714        0.51432939858747
H           -2.02583076031251        5.14095904233508        1.06572331774632
Cl           0.47666943616591        1.91147637367856        2.63441599493110
Cl          -2.27254487767680        1.47263240162068        1.39719637395593
O           -0.95875258865331        0.05835553978188       -0.61679362700750
O            0.25331730494244       -0.47025003305133        1.48743138250418
C           -1.65247078896880       -2.06086802301999        0.04469551001434
C           -0.29784329334433       -2.43660265446563        0.26143432437085
C            1.98540109325307       -1.73707314185188        0.58797361664958
C           -3.21216111871683       -0.39447055011968       -0.66339562726609
C           -4.30987418465565       -1.21674897824787       -0.44942560084811
C           -2.73816972391127       -2.93540327832275        0.21588692709434
C           -4.02429280464146       -2.52285453244571        0.00206638615529
C            0.18978266335377       -3.71534036808406       -0.02535886979613
C            1.53482249078942       -3.98414337458361       -0.04430543995638
C            2.48741969877530       -2.96305420502779        0.19475448975624
H           -2.53964584321825       -3.93153729742214        0.57734619212612
H           -4.82674494082344       -3.21528980648600        0.18562324912777
H           -0.51575645260196       -4.48165414452463       -0.30495572405487
H            1.86067948240199       -4.97786187551617       -0.29265095296791
C            3.97945837830776       -3.19566127309003        0.02989779221571
C            2.77378925728832       -0.61949556570644        0.94806419918648
N           -1.94743400097466       -0.80466882755999       -0.40923186276736
N            0.63701820257129       -1.52263698082631        0.70382401432894
C           -3.27024610534272        0.89565077358616       -1.25838638013392
C           -5.72695505070754       -0.72734052813491       -0.68298766776167
C           -5.92902181337467       -0.43913661424221       -2.17827656154511
C           -6.76864068648252       -1.76720897297880       -0.25563199579644
C           -5.96039308039157        0.54381138842311        0.14580673877583
H           -5.73140494346999       -1.33324463249436       -2.76699512149772
H           -6.95664048518261       -0.13217594446784       -2.35524071416902
H           -5.27397980687074        0.35481646731413       -2.52175708106142
H           -7.76247336468943       -1.35025123521762       -0.39908918647516
H           -6.70034947635473       -2.67170414610224       -0.85618665418460
H           -6.66324514055954       -2.02079328874431        0.79652275865102
H           -5.28622633415934        1.34251836101059       -0.14509089812844
H           -6.98166882882736        0.88995842180745        0.00753689537799
H           -5.80249909512627        0.33898423630060        1.20221536411728
N           -3.28095768772891        1.88444115873874       -1.83699849924197
N            3.38227016855911        0.30240292894542        1.25860763595059
C            4.53555065720429       -2.20458480952251       -1.00336189199651
C            4.67936383505122       -3.00454348076546        1.38364061603341
C            4.28811566355569       -4.61356563809025       -0.46415852450054
H            4.40902816806954       -1.17433853354078       -0.68520108301613
H            5.59780941676696       -2.38490985929215       -1.14855492531579
H            4.03156072771273       -2.33336210025754       -1.95927698029675
H            4.57313975012704       -1.98750856574214        1.74672991938435
H            4.26187169051420       -3.68342806477548        2.12473596294863
H            5.74014996973364       -3.21897511270178        1.28055002655523
H            3.81815792100421       -4.80936212296117       -1.42519112845986
H            5.36296955202655       -4.71631873872884       -0.59203811696097
H            3.96811882420654       -5.36344431869632        0.25544989218902
