71
 energy: -114.718035026409 gnorm: 0.000685980185 xtb: 6.5.1 (b24c23e)
Si           0.33445383803775       -1.01096054342908        0.88533515396385
O           -0.57195824837274       -1.76842890564332       -0.20413435368853
C           -1.50550499014652       -2.81654839899929       -0.08521461730062
C           -2.78507710368207       -2.40367573715899       -0.76646652491711
H           -1.69388081234910       -3.01948106978334        0.97577606084646
C           -2.74041256370717       -1.58401131710641       -1.88645529275160
C           -4.01356169555002       -2.83648488365728       -0.28721062166474
C           -3.91013587062478       -1.19591676581413       -2.51453331385333
H           -1.78119074407487       -1.24248423959032       -2.24600281144302
C           -5.18223800542905       -2.45150270201008       -0.91966092143626
H           -4.05201318085276       -3.46344457763793        0.59081686569003
C           -5.13372535959023       -1.62959169341578       -2.03287057184157
H           -3.86784259461739       -0.55396324194112       -3.38320035229777
H           -6.13514136079233       -2.78686116625891       -0.53765128633340
H           -6.04714887313037       -1.32361237286974       -2.52207250826953
C           -0.91650882735159       -4.07628909696742       -0.74774102133631
C            0.28657194810462       -4.48916449042968       -0.05755329039873
H           -1.66176453228206       -4.87509542197079       -0.72032125788551
H           -0.67572103370525       -3.84369697687654       -1.78834888020602
C            1.28540683119337       -4.77597599935991        0.53466476070484
H            2.16219265325361       -5.03731346608071        1.04701901792953
Cl          -0.40229199722922       -1.83834926906763        2.68782420274347
Cl           2.31564128602004       -1.41077601539245        1.38525283483005
O            0.94859576641707       -0.10208627562892       -0.66165906690934
O           -0.21709265653420        0.51112695128590        1.44921034353352
C            1.61462350614812        2.05867100113793       -0.11837176857021
C            0.25650428916528        2.41921919951946        0.10663482141662
C           -2.00214763145741        1.69856740679106        0.54185838669876
C            3.19370779736075        0.38749684820279       -0.76903296460902
C            4.27820845008625        1.24063754215707       -0.61693944415588
C            2.68452052758281        2.96176746055206       -0.01348267507886
C            3.97491051751157        2.56319465204917       -0.22941623088459
C           -0.26407661505362        3.66720422046250       -0.24608197172950
C           -1.61461519978017        3.91048254849964       -0.24043045904557
C           -2.53897937581826        2.89074572726595        0.09417170968480
H            2.47203702820031        3.97145949844852        0.29918604449945
H            4.76647007101963        3.27948756522949       -0.09740584386897
H            0.41764055139368        4.42635774901955       -0.59623827898375
H           -1.96715258708273        4.87982773048118       -0.54278723388534
C           -4.04001624341364        3.08961813285315       -0.02790691936094
C           -2.75746532507065        0.59069767412079        0.99047704792673
N            1.92543951173873        0.78659618155018       -0.51316206103863
N           -0.64646336955944        1.51559332563861        0.62802719532330
C            3.26821115424254       -0.92941913901027       -1.29988768949295
C            5.70080710910976        0.76647400595602       -0.84872243069448
C            5.88547140328008        0.40419448647164       -2.33002334634792
C            6.72866065686899        1.84660330118694       -0.49347271689742
C            5.97202932966640       -0.45489808782092        0.04113034834151
H            5.66247832663528        1.26269268102035       -2.96116250499328
H            6.91591523107199        0.10683543361942       -2.50713800525108
H            5.24031759362852       -0.41816906193023       -2.62137827760781
H            7.72788480733891        1.44107411566372       -0.63178861512857
H            6.63343618142435        2.71689218523381       -1.13908538980364
H            6.63514539978199        2.15302552402725        0.54563668249160
H            5.30731107281754       -1.27929183565945       -0.19472807434408
H            6.99674465856061       -0.79026108404648       -0.09792775178216
H            5.82945130801579       -0.19718713474075        1.08806493315803
N            3.28936744287160       -1.94491620695075       -1.82970194037951
N           -3.33972976513482       -0.32190793831068        1.37083891343610
C           -4.61625513112277        2.03173316562313       -0.98043687353520
C           -4.68441573016203        2.96650205250104        1.36086885213034
C           -4.39293126038613        4.47122414326143       -0.59050439238464
H           -4.46467930710949        1.02405959283682       -0.60615768428286
H           -5.68520544692458        2.18996722785145       -1.09996133520098
H           -4.14627321019140        2.10893708514780       -1.95890765964589
H           -4.53984888560021        1.97626308450864        1.78067683259691
H           -4.25601645137287        3.69874430823710        2.04272103535897
H           -5.75326052214009        3.15049710313207        1.28618863104950
H           -3.96551970301876        4.61717944597329       -1.57986991902038
H           -5.47374402334270        4.54950029589536       -0.68005927851042
H           -4.05783601479878        5.26714946214886        0.07044575467510
