71
 energy: -114.635855633780 gnorm: 0.000594548582 xtb: 6.5.1 (b24c23e)
Si           0.25649301005367       -1.73732845022020        0.94047500228107
O            1.38708227612287       -2.86822575088941        0.57128105381948
C            2.08254700915633       -3.09328998522689       -0.55591266938181
C            3.39273417487494       -3.55376877532722       -0.52300164552672
H            1.58019786333531       -2.88356972374136       -1.49072893192164
C            4.06739924907144       -3.79292555252086        0.70189295808173
C            4.10239339064179       -3.78862263797869       -1.72845671305544
C            5.36616302254927       -4.23618113506839        0.70871450782257
H            3.53281811270301       -3.61714981781394        1.62252296477698
C            5.40088412243376       -4.23216385818708       -1.69891058212761
H            3.60080190766940       -3.61065577860953       -2.66801543025596
C            6.04492044322904       -4.46019692064871       -0.48569691073330
H            5.86806882960069       -4.41382826247595        1.64904698510419
H            5.93029856696961       -4.40687726846415       -2.62459137920062
H            7.06587420384150       -4.80988915021044       -0.47211437033074
C            2.36808153825860        0.44338420918686       -1.46574914262057
C            1.76433847944223        0.22491815327217       -0.34348052510343
H            1.86721826107211        0.91767826609790       -2.29543818289936
H            3.40131748230331        0.17622206353608       -1.61499629364323
C            1.11025399645838       -0.06580836331127        0.74167043188904
H            1.06367079123972        0.62898280506663        1.56647527323457
Cl          -1.20511249853141       -1.99305630459031       -0.45569227755146
Cl          -0.25999525572521       -2.25483259539886        2.78770617299660
O           -1.64573310108008        0.29681188476388        1.65222246347346
O           -0.41354853674687        2.34999977469850       -2.09954555412151
C           -2.15689594843821        1.58313546934981       -0.16475912891877
C           -0.97211653649879        2.39888180391927        0.11366315426779
C            0.99397161018035        3.42163129568227       -0.68480993758114
C           -3.52206864349142       -0.22089862601222        0.49087455650932
C           -4.38485182362364       -0.05318489149248       -0.59611617376991
C           -2.98758019947362        1.79572673977036       -1.24803160000036
C           -4.08574079437620        0.98514708827431       -1.47076063899317
C           -0.65521914838749        2.83265394549723        1.38712454625380
C            0.50599588105508        3.54315919329879        1.63238815874012
C            1.37930042046036        3.83941815624217        0.59275191088108
H           -2.75766342849387        2.59656466283343       -1.93153789450131
H           -4.69833805248072        1.17559929138299       -2.33338797504980
H           -1.31890802014605        2.58896991395832        2.20072054114465
H            0.71968868332837        3.84849358409062        2.64075959577797
C            2.69627859734039        4.56194748980096        0.81592918803544
C            1.72825649821094        3.67472418457185       -1.86994140873539
N           -2.42243260649761        0.55887793362818        0.68889846235090
N           -0.15021391268930        2.71227061344518       -0.92596893762966
C           -3.67119993435809       -1.20680342461918        1.49901892910396
C           -5.57084244176799       -0.97835917571462       -0.80276145892000
C           -5.05897038852201       -2.41881378258576       -0.94684636588204
C           -6.52641862705738       -0.86175373082232        0.39363641923059
C           -6.35590607699094       -0.62692616650471       -2.07106517975119
H           -4.57188209066938       -2.76358084908267       -0.04056593385813
H           -5.89189051583721       -3.08422324731543       -1.15982007549897
H           -4.34418229511703       -2.48376695280078       -1.76438772505936
H           -7.39400369567108       -1.49612942772982        0.23077697762292
H           -6.05036354907958       -1.17203679937882        1.31837201617171
H           -6.86877468492190        0.16556065838330        0.50582796551008
H           -5.73247746740502       -0.71527103206215       -2.95737516220819
H           -7.18524636818626       -1.32206671757412       -2.17723976374565
H           -6.76970243103277        0.37757145846480       -2.01721891312594
N           -3.76986812771882       -1.96600721608066        2.35188051081163
N            2.27766176954594        3.87513125672448       -2.85629651240459
C            3.84301984114912        3.65397262494379        0.34684905415436
C            2.70043962441337        5.88420299089165        0.03568154902302
C            2.92710117272139        4.88656463915491        2.29575576544484
H            3.79382610460260        3.46693682380670       -0.72112939482570
H            4.79732246761409        4.12671342105746        0.56491267599899
H            3.80391837058115        2.69796705162810        0.86564358676960
H            2.61336234628874        5.71966671310972       -1.03352616054720
H            1.87489527462709        6.51589683606234        0.35852854428065
H            3.63092836950914        6.41466664799523        0.22130371663768
H            2.95841672221864        3.98203828638411        2.89842008746999
H            3.88485284540242        5.39014920551416        2.40189330314209
H            2.15838787072941        5.55241823397038        2.68113792067449
