71
 energy: -114.718435331980 gnorm: 0.000498405370 xtb: 6.5.1 (b24c23e)
Si          -0.23153266814284        1.19803819288848        1.34371891855141
O            0.08439091930377        2.45980323358790        0.41099802648007
C           -0.19512967049544        2.77780640708563       -0.94119036112523
C            0.74100479584988        2.03643846966573       -1.85607981723742
H           -1.22988633373762        2.50010968738505       -1.16425505315247
C            2.10186822140990        2.02077487642903       -1.58234593412119
C            0.26123699492363        1.35495202302894       -2.96586890470582
C            2.97082573737812        1.32289416864070       -2.40188829305625
H            2.47571618217350        2.54248359056315       -0.71428256006645
C            1.13058788123888        0.65289248771348       -3.78183748983686
H           -0.79750393730462        1.36947098991185       -3.18047605564234
C            2.48655969132892        0.63296495278511       -3.50003230860299
H            4.02873686763269        1.32386386868313       -2.18475399537448
H            0.74962418710261        0.11772160831348       -4.64009138555098
H            3.16431776206182        0.08401030529625       -4.13835154127876
C           -0.03190586672558        4.29916811859435       -1.09396110872721
C           -1.07961177948803        4.99852281817442       -0.38136812064455
H           -0.07281735938166        4.55385970610758       -2.15641179116415
H            0.94101067896503        4.59109972280743       -0.69212914744074
C           -1.96432460181082        5.53792303582682        0.21617868701030
H           -2.73015439506712        6.02706486286860        0.73948203645477
Cl           0.44332117969900        2.02622212091852        3.09270711427751
Cl          -2.17410745090080        0.80915377984782        1.90046446761289
O           -0.70608922317512        0.13991042291349       -0.45065237597081
O            0.77476862808770       -0.12948523568691        1.57690312961241
C           -0.81805947479573       -2.09876700544837        0.10503506935063
C            0.59714983468221       -2.14613916171064        0.28429858007476
C            2.70046893944056       -1.01036471370824        0.62848499940832
C           -2.75488904028776       -0.85569974672576       -0.49260806100158
C           -3.61448586625104       -1.93099018508322       -0.29859028414745
C           -1.65113113269615       -3.21657890386025        0.27597015119404
C           -3.00621440571384       -3.13449186999368        0.09736946865121
C            1.33088384439474       -3.29670959783455        0.00467055950735
C            2.70612613974439       -3.30927027707474        0.02578503614268
C            3.43698091686608       -2.13238232188473        0.29970321816110
H           -1.20723627823096       -4.14081144061333        0.60821924755702
H           -3.60533892104684       -4.01015827619710        0.27525121299562
H            0.79740112933678       -4.18708504456609       -0.28789607510840
H            3.21706719904843       -4.22562295111032       -0.20602036677049
C            4.95624616195109       -2.10634169277608        0.25235457218878
C            3.25357352173933        0.23915795764859        0.97659302778161
N           -1.42031912610522       -0.94073502252518       -0.28572090689313
N            1.31848433857983       -1.03410571468290        0.68102876660372
C           -3.13911301332185        0.42110088991438       -0.97761282332994
C           -5.11289132330467       -1.78388060029342       -0.47827200584645
C           -5.61552312647494       -0.67657283728681        0.45962688395384
C           -5.42497180105800       -1.43070461697344       -1.94012507066463
C           -5.85932690142258       -3.07633294397285       -0.13209049189093
H           -5.17392847624057        0.28465983302240        0.21682016578553
H           -6.69590136757550       -0.58714596481404        0.37788326648289
H           -5.36223843713937       -0.91161478689069        1.49089842338853
H           -6.50094836080244       -1.35838903431868       -2.07688370435580
H           -4.98428226076247       -0.48001490526801       -2.22303484491445
H           -5.04499606331913       -2.20275781351482       -2.60697035140011
H           -5.68304628152767       -3.36816120905930        0.90035558546938
H           -6.92710514801082       -2.91103398231836       -0.25288631883417
H           -5.57297531802572       -3.89087948528421       -0.79382435041596
N           -3.36914363683113        1.44453198975373       -1.43957173105314
N            3.67530461560886        1.26850366247352        1.26298426126257
C            5.42164023221883       -1.05117704386591       -0.76029470557351
C            5.49846438664063       -1.77855822305302        1.65165091532640
C            5.54231056336251       -3.45687094612645       -0.17525804145591
H            5.13993752685846       -0.05202606082083       -0.44554637792291
H            6.50452363921439       -1.08469315034773       -0.85356301658476
H            4.98421122701659       -1.24671682808174       -1.73757396871506
H            5.17491337122888       -0.79750614975382        1.98478330945861
H            5.15655895741142       -2.51864296572987        2.37258664905891
H            6.58549201483399       -1.79103847147176        1.63559183863956
H            5.19804549658877       -3.74196687095888       -1.16678033238073
H            6.62613404038905       -3.37544973586929       -0.20982875279878
H            5.29335622286476       -4.24170599529519        0.53508723731988
