71
 energy: -114.634038880282 gnorm: 0.000495819006 xtb: 6.5.1 (b24c23e)
Si          -0.03030261452841       -0.88592819076096        0.86357338183163
O            1.58747619590150       -1.77778162831923        0.52954239395973
C            2.11513650428143       -2.02923838957455       -0.56735104326756
C            3.38296253330541       -2.69101367971097       -0.68155330531253
H            1.56716226504752       -1.80577840323086       -1.48651677803856
C            4.09987407874941       -3.05254417555773        0.46884417521109
C            3.91416601876557       -2.98580297323029       -1.94454314001997
C            5.31268816810762       -3.69671288575839        0.35217668636225
H            3.67858669849308       -2.81524411311723        1.43351014055269
C            5.12896621033603       -3.62884270991855       -2.04862840178094
H            3.36486940184956       -2.69743166740202       -2.82767783634501
C            5.82943826240953       -3.98665317848452       -0.90378163351865
H            5.86334081211690       -3.97606614765220        1.23791047314249
H            5.53969162025219       -3.85498106234622       -3.02159005475761
H            6.78057817266422       -4.49065399240939       -0.99165942039891
C           -1.95756029608905       -1.25705001880776       -2.60330908668133
C           -1.52118800291114       -1.68898265503304       -1.45841099479801
H           -2.92863217982951       -0.79921962761293       -2.71502544251728
H           -1.37298445552837       -1.35892824034581       -3.50338122834651
C           -1.04356406884894       -2.04381413021181       -0.31199500875868
H           -1.22208786506225       -3.04686454442719        0.04979843157979
Cl           1.31042885144350        0.50960110426590        1.95575692129921
Cl          -0.29884408082311       -2.08311355173115        2.57243896352722
O            0.21114555922991        0.19011592547260       -0.68651452184994
O           -1.40722467706124        0.23980386939496        1.30434610571833
C           -0.70850187407163        2.29605223487099       -0.38366222031776
C           -2.02984034437313        1.69216332824178       -0.40690159344010
C           -3.47362108276022       -0.07082509151044        0.30217352304124
C            1.65007396207949        1.98089524976181       -0.47243511675943
C            1.89994369233536        3.33078100515954       -0.23233562582344
C           -0.49953969030216        3.65421854582500       -0.23320974728609
C            0.78690168828661        4.16627812609564       -0.13555340909217
C           -3.04350619768413        2.17052757563557       -1.21210950007829
C           -4.26288274744764        1.51371483955417       -1.28782098041086
C           -4.49586713028324        0.34984631771907       -0.54620912963644
H           -1.35433887146200        4.30306258184782       -0.12706029422542
H            0.90776372901914        5.22107928308942        0.03564371959771
H           -2.85341883260263        3.03750727798649       -1.82502480743813
H           -5.01537247127726        1.90308025612426       -1.94941508525608
C           -5.80705089949606       -0.41372272353972       -0.63964336822113
C           -3.56213064798994       -1.17376565562247        1.17790943227411
N            0.37233223763858        1.49707824970403       -0.54312240567077
N           -2.29243615597660        0.61900969508675        0.38776476299109
C            2.60141646422090        0.98600127709193       -0.75878295999755
C            3.32380165046917        3.82733965334198       -0.07465211106191
C            4.00157182070530        3.01559654242467        1.03785168169996
C            4.07643283367149        3.64744834850251       -1.40120180037546
C            3.37466035333313        5.30862089106977        0.31149151143792
H            4.07984588621938        1.96585338854008        0.77244405842119
H            5.00244335001991        3.39976517347647        1.21903886843300
H            3.42651319652672        3.08242938201419        1.95806233537740
H            5.09168253840913        4.02260811661958       -1.29928955171723
H            4.12857365586925        2.60083607257399       -1.68666225932703
H            3.58301825075754        4.20171927271741       -2.19783506697983
H            2.84608702960039        5.48680424687677        1.24458965959614
H            4.41175827741625        5.60273661039489        0.45333068508217
H            2.95516561110808        5.93916818161499       -0.46945705849881
N            3.27116089423271        0.11414035011267       -1.10349071988964
N           -3.64696068551778       -2.04759737993339        1.91781895677313
C           -5.53564261512996       -1.86969945886148       -1.04397911444405
C           -6.51349572161954       -0.36023839178472        0.72339101401031
C           -6.75232444338483        0.19174034197286       -1.68415922020368
H           -4.90556675824638       -2.37747819051918       -0.32187978527835
H           -6.47677911921319       -2.40967014917288       -1.11258390556710
H           -5.04573945078084       -1.91049830399544       -2.01442776261332
H           -5.92915029600450       -0.85243797463192        1.49389870215755
H           -6.68291884406461        0.67283544808456        1.02149251435526
H           -7.47633910614250       -0.86028111781744        0.65540189081535
H           -6.30288518909199        0.19004609762653       -2.67465549397366
H           -7.65717658787690       -0.40937275341597       -1.72980242290914
H           -7.04248247138710        1.20595629555930       -1.41971957636712
