71
 energy: -114.719885501556 gnorm: 0.000476008973 xtb: 6.5.1 (b24c23e)
Si           0.11194369260943       -0.83747768919055        1.67840702254437
O           -0.67010303250817       -2.02374703719042        0.97459128397742
C           -0.77060851201827       -2.61510009548391       -0.31613182285896
C           -2.13356837994534       -2.29345976204948       -0.86960457680666
H            0.00112641079334       -2.18486257278357       -0.95776934415211
C           -3.28272299423553       -2.71464149033661       -0.21268760277568
C           -2.24989323929139       -1.52009598601787       -2.01644485316073
C           -4.53046539164917       -2.38608557090787       -0.71101501255114
H           -3.20104976393484       -3.28018184987652        0.70220029986332
C           -3.49871895979661       -1.19338360780907       -2.51496134829313
H           -1.35450536104394       -1.17038444994493       -2.50920384809340
C           -4.64117033793452       -1.63004382867120       -1.86556114701028
H           -5.41852981362327       -2.71326668143193       -0.19172275936969
H           -3.58090165700096       -0.59424233447570       -3.41072689758914
H           -5.61584991815198       -1.37283218539631       -2.25431344083929
C           -0.52451462307724       -4.12239969260874       -0.16580885184677
C            0.84523716464928       -4.36005231865354        0.23951567950290
H           -0.71901804339552       -4.60798998581851       -1.12532014848085
H           -1.20405508444998       -4.52992714883647        0.58614402875426
C            1.98278379649070       -4.48839419606829        0.58620792961931
H            2.98103467380665       -4.62384669654222        0.87635349935469
Cl          -0.50977682647709       -0.97688493157865        3.58183373946148
Cl           2.12506972697340       -0.98343091726123        1.73355889522993
O            0.77882837898733       -0.25032011225353       -0.86610349005984
O           -0.27786991435766        0.74434766938879        1.39352869137307
C            1.41625117508250        1.91933145767337       -0.54101112736270
C            0.03127020340436        2.28240936655718       -0.37118697035045
C           -2.18769417186238        1.60381548458051        0.29710727041478
C            2.99823784499544        0.20936014000650       -0.94932632529239
C            4.08107008764164        1.08672162149162       -0.86564393289687
C            2.46427819012672        2.83548803131254       -0.49493600702534
C            3.77132693167969        2.43017796405679       -0.64347439369439
C           -0.50919327870852        3.44648404324023       -0.87130029447413
C           -1.87189513672576        3.70394412111957       -0.78736141799387
C           -2.74700538581294        2.76019744636973       -0.23211109088945
H            2.23333999449419        3.87019388598255       -0.29847967338023
H            4.55158619396897        3.16715383443514       -0.57396323676196
H            0.13761956002294        4.14265697341022       -1.38201089389587
H           -2.24373239589635        4.62685472983526       -1.19231266399352
C           -4.25147971358145        2.98071823027917       -0.20615186174002
C           -2.90629602170570        0.57015455667810        0.91445902593055
N            1.71406434521741        0.61209370929790       -0.78229003606319
N           -0.81187251153008        1.39519906387983        0.27172107933517
C            3.08672063616888       -1.17327569166130       -1.25451897473218
C            5.50596086640714        0.58288821213978       -0.99761911998864
C            5.75521870926522       -0.48883005723150        0.07336934248085
C            5.71470256947638       -0.00280748688736       -2.40198752167414
C            6.53049614346863        1.70396028644352       -0.79359730182548
H            5.10770585435959       -1.34865481504082       -0.06409899373665
H            6.78756127878138       -0.82614204091641        0.02238776738593
H            5.57035727582201       -0.08150417430402        1.06492672806026
H            6.74461540680461       -0.33312353403361       -2.51155494770093
H            5.06543226603803       -0.85463652043076       -2.57858746038052
H            5.51339533567553        0.75131727825271       -3.16092538735162
H            6.43212797686603        2.15201363684022        0.19228839984076
H            7.53166404539472        1.28699265153643       -0.87146751125002
H            6.43307201518836        2.47569237514316       -1.55398746002505
N            3.09218252328268       -2.27957344876695       -1.55371560066944
N           -3.44776777225698       -0.29005549980649        1.45535735252483
C           -4.94266867714512        1.85044972959446       -0.98104059806829
C           -4.73799866244153        3.00686193943531        1.25008030725806
C           -4.65182531943432        4.30967672080507       -0.85718736504585
H           -4.75559426754464        0.88171514722205       -0.52854057490993
H           -6.01689041489079        2.01865792517141       -0.99540375736909
H           -4.58374662964803        1.82365641946941       -2.00803967976559
H           -4.56406538302265        2.05703241216184        1.74509786652988
H           -4.22274062723334        3.78749663178551        1.80656839543188
H           -5.80521433184959        3.21322207845223        1.27674681255201
H           -4.35075098405102        4.34590532950608       -1.90158580811875
H           -5.73412230518106        4.40903070754258       -0.81929257661288
H           -4.22253843053605        5.15656859918306       -0.32697470850135
