71
 energy: -114.720520050212 gnorm: 0.000840255157 xtb: 6.5.1 (b24c23e)
Si           0.00745660438756        0.81328220088661        1.46244567222290
O            0.26766448414600        2.01165779157469        0.45610893785546
C           -0.13979522002231        2.43030397966289       -0.83770910943242
C           -0.85066521345039        3.75160335833571       -0.70788721147026
H           -0.80951720057377        1.67777017618906       -1.25942245209460
C           -0.26198481259366        4.78896339171399        0.00448540641715
C           -2.09869904625012        3.93794032257635       -1.28578799393932
C           -0.91163354188193        6.00372564490989        0.12779185420953
H            0.69668696323446        4.63194316060068        0.47532027173327
C           -2.74331439366843        5.15704330816894       -1.16610806594645
H           -2.56729579306791        3.12346859944465       -1.81808391290455
C           -2.15050230397687        6.19151432204942       -0.46224771791934
H           -0.45109731840133        6.80526975115913        0.68646754836866
H           -3.71465013215709        5.29648860110862       -1.61724220621284
H           -2.65671882720943        7.14104668478996       -0.36661560058944
C            1.11738938571668        2.55366254572931       -1.71746189546890
C            1.55679997678376        1.26287160774180       -2.19740368109465
H            0.89245688016584        3.20008288631304       -2.56973907291608
H            1.91395477910145        3.00743442720079       -1.12188883117100
C            1.90674814229260        0.18761849295971       -2.58916345228812
H            2.20491427951353       -0.75461767807314       -2.94081342040427
Cl          -1.90388428221362        0.28036407905895        1.85827754551961
Cl           0.71629820702363        1.55906918911301        3.19389626261718
O           -0.62117439777833       -0.38007793887165       -0.72154139730402
O            0.94203812009901       -0.55466506882584        1.40146824558317
C           -0.35572040423315       -2.57647968796290       -0.13066394954525
C            1.06945906734380       -2.38728367126276       -0.09230402867115
C            2.91069998632885       -0.83864925643491        0.13114677983826
C           -2.49514962524434       -1.63144291180647       -0.50591136556570
C           -3.16069293822630       -2.82580675235614       -0.22514981408912
C           -0.98067884362818       -3.80047331373444        0.11482597350605
C           -2.35005187282670       -3.92328563127176        0.07917367534759
C            1.97188676217760       -3.34302934503443       -0.51578802361433
C            3.32956078440555       -3.06960715173812       -0.59379440789554
C            3.82197779345640       -1.78334190582280       -0.31813083046066
H           -0.36592750122025       -4.64720151432320        0.37466312420004
H           -2.78837648624854       -4.88056638251429        0.29942311251468
H            1.59950754530552       -4.30119299878656       -0.84328674485225
H            3.99081115377948       -3.84971628391902       -0.92370197422848
C            5.28659524247696       -1.42479779216708       -0.51516805131171
C            3.20993242504982        0.50221891129283        0.42036529904425
N           -1.14596941688524       -1.51246481899360       -0.45048276242261
N            1.57777800675118       -1.17349208912952        0.32678210552523
C           -3.10978892835515       -0.42318026038140       -0.92391503458856
C           -4.67560965755862       -2.89829730015988       -0.24214278510844
C           -5.23298465046106       -1.87040499240847        0.75331284394136
C           -5.18762446968098       -2.60249506636888       -1.65960169449737
C           -5.18651542185545       -4.28316451087109        0.16870961886006
H           -4.96113336113237       -0.85672832409584        0.47642358290711
H           -6.31777038066792       -1.93700992692305        0.78231917247623
H           -4.84645464953434       -2.06357396260534        1.75163982042795
H           -6.27110086456458       -2.68857126653829       -1.68290429170376
H           -4.92099372238947       -1.59939137799061       -1.97760480669099
H           -4.77103112505465       -3.31462652275976       -2.36984177978909
H           -4.85651300893583       -4.54276067450468        1.17177286364545
H           -6.27377269356321       -4.27422457892442        0.16783828974717
H           -4.86061925154877       -5.05060809814256       -0.52991335405717
N           -3.53897680719421        0.56275997636017       -1.32146466296610
N            3.40929106731545        1.60681463552045        0.67623237874815
C            5.40394362846824       -0.32020412661583       -1.57485610988727
C            5.87563584729108       -0.94819387911108        0.82061842169306
C            6.11686201332527       -2.62260790991255       -0.99062831866895
H            4.85537387055031        0.57066092085208       -1.28666324233834
H            6.44881649280056       -0.05104731970039       -1.70935517614302
H            5.01405470577429       -0.66719938412016       -2.52944364899569
H            5.38819535632198       -0.04437086041995        1.17125084826184
H            5.76280071737780       -1.71976205559077        1.57997928195373
H            6.93548433887865       -0.73716910092023        0.70035595762010
H            5.76854031164054       -2.99174722553105       -1.95251416238006
H            7.15103289847603       -2.30875270985574       -1.11140080900436
H            6.09746772649775       -3.43170333783622       -0.26413504415303
