71
 energy: -114.717445772858 gnorm: 0.000701717685 xtb: 6.5.1 (b24c23e)
Si           0.42085173184325       -1.42850994534615        0.81771203667467
O           -1.17739673745946       -1.31898129310525        0.51940384156458
C           -2.11940582615637       -2.25913333190389        0.04807993952352
C           -2.92758567809723       -1.58223870840146       -1.03809494096076
H           -1.57353334179874       -3.10855757763152       -0.38830511321371
C           -2.27494471418568       -0.70506049084488       -1.89937422247314
C           -4.28718060842783       -1.79949495376455       -1.22204270535889
C           -2.96263172878962       -0.04014926244433       -2.89667691653100
H           -1.21204047646649       -0.55363916902893       -1.78751831555879
C           -4.97454586730259       -1.14533746357634       -2.23183360554925
H           -4.82665812056238       -2.47978601569653       -0.58305911329783
C           -4.31983317551813       -0.25641163615621       -3.06583022024514
H           -2.43576633285090        0.64076338864744       -3.54988115790605
H           -6.03124353182314       -1.32837701313047       -2.36140239226587
H           -4.86129400111880        0.25723700455791       -3.84661805224385
C           -2.95667349332358       -2.77734620208028        1.22823739119258
C           -2.09152975609152       -3.32547225128262        2.25275243557165
H           -3.62945131229288       -3.56191855262313        0.87538245927227
H           -3.53976456080721       -1.95712739140683        1.65583961067191
C           -1.33973744747785       -3.76202118607605        3.07383237165942
H           -0.68538058290471       -4.13677793948914        3.80225640030904
Cl           1.28951056709762       -1.68124464808167        2.63139861804101
Cl           0.77587351478613       -3.35008426086534        0.02454435444475
O            1.37234524622766       -0.82219378809768       -0.47747521810621
O            0.25884803253103        0.40391595479497        1.38366034831407
C            1.52293744480137        1.54098493844881       -0.74839144160270
C            0.14611087207651        1.77973145680016       -0.48375783342694
C           -1.75996589904720        1.41149130779524        0.90506116262342
C            3.47596918966311        0.16528832611920       -0.42943654395996
C            4.33511070764807        1.17596114620785       -0.81640074579426
C            2.37210527956091        2.53610570798537       -1.24447680237181
C            3.73107874120480        2.36572054438899       -1.29269905224669
C           -0.64424043883916        2.65041240219755       -1.25326745363791
C           -1.95791697140784        2.87560549500192       -0.95266735225931
C           -2.56902973045048        2.25996027960920        0.16132455540073
H            1.93952381662466        3.48214249985252       -1.52943867520170
H            4.34106113852389        3.17062684911484       -1.66044423943987
H           -0.20001709987383        3.10886989508132       -2.12220914694275
H           -2.52923975865619        3.52998030507486       -1.58645464076521
C           -4.00972654141921        2.54216084539852        0.54923750820312
C           -2.17506453724304        0.73041943751332        2.07962503268052
N            2.11527355211772        0.32505626349699       -0.47196779827698
N           -0.45965129328470        1.19571898625296        0.59597739369208
C            3.88718811300897       -1.12292697076566       -0.01072759296538
C            5.84372534120302        1.01618135882011       -0.73772289349860
C            6.28704555389703       -0.11410613104499       -1.67860929364069
C            6.57898298985462        2.29438684257392       -1.15692901293241
C            6.24598332590416        0.69678367785149        0.70956572817109
H            5.98383250510189        0.10401027214360       -2.70092975097545
H            7.36990805616873       -0.20637267227506       -1.65384692648542
H            5.85892065425839       -1.06748895894651       -1.38637477974722
H            7.64935929672884        2.13525961541948       -1.05153654128517
H            6.38361981914877        2.54367660124301       -2.19734592781671
H            6.30373003318166        3.13512803294343       -0.52423195166427
H            5.81713527698106       -0.24077711497934        1.04802611475646
H            7.32807363173838        0.61837568445265        0.77942637296378
H            5.91511194140040        1.48974351387039        1.37761035869758
N            4.19407631986763       -2.17919623025734        0.31315181862073
N           -2.48120825728888        0.20583913533287        3.05069374145764
C           -4.80830105813998        1.23392959405588        0.61115143281437
C           -4.02539478267376        3.24083359472748        1.91827293610089
C           -4.70449299567471        3.46011627402462       -0.46257281602518
H           -4.40292024853957        0.55202156486101        1.35075728537162
H           -5.84005424339178        1.44822037728675        0.87947689437038
H           -4.79767215336000        0.74062753034061       -0.35775784390476
H           -3.61434407428118        2.60248359039605        2.69446739689469
H           -3.44546041948014        4.16134304635799        1.88199776376295
H           -5.04796268101363        3.49040352210087        2.19021152468480
H           -4.71637257207471        3.01227655065439       -1.45368171771416
H           -5.73599767252984        3.60932081596369       -0.15279319760345
H           -4.22906097103103        4.43726292955177       -0.50860188260453
