71
 energy: -114.715246446054 gnorm: 0.000553979966 xtb: 6.5.1 (b24c23e)
Si           0.45952300828954       -0.61582986067055        0.54382073174048
O            1.09416151438807       -2.02434857675546        0.16052174230550
C            0.89669777358358       -3.34947673776220        0.60468101712312
C            1.29880824913556       -4.30036057117944       -0.49496463366476
H           -0.16576683843003       -3.48528399803570        0.85025522306333
C            2.27426074762694       -3.94365798375665       -1.41570436226411
C            0.70826612102097       -5.55542990256598       -0.57000279559690
C            2.64938486475444       -4.83590028001810       -2.40525611378524
H            2.72239195600758       -2.96331910067458       -1.36454817710584
C            1.09100380790909       -6.44662139753050       -1.55608289021640
H           -0.05463411845678       -5.83168593055377        0.14453030461284
C            2.06219675878182       -6.08751963349541       -2.47601115947391
H            3.40418847135152       -4.55022889306364       -3.12220711087531
H            0.62660706017604       -7.42024652414710       -1.60917930441718
H            2.35667811943872       -6.78248693154845       -3.24836160588419
C            1.73742988966827       -3.60290606067842        1.87034415695459
C            1.19852419918327       -2.87580555028469        2.99917667487555
H            1.73874261180240       -4.67386473894742        2.08714425379339
H            2.76312700533363       -3.28052519493818        1.67399132106774
C            0.70006685007821       -2.25466643691319        3.89258906894448
H            0.29350315425051       -1.71733410176635        4.69653922309299
Cl           1.52054083861416        0.44473365894639        1.87696855446582
Cl          -1.46691548658303       -0.79990586031009        1.10592645470192
O            0.52261461076888        0.12540119425751       -0.91724746419610
O           -2.13352174434750        3.28894932403966        0.93027217068244
C           -0.12772507788159        2.40739656724857       -0.73044408597460
C           -1.50272454394614        1.97354014085982       -0.83693105312980
C           -3.69093837485488        1.90049836090260        0.05259470112751
C            2.19185329647672        1.78569320534291       -1.05959898694766
C            2.63248087395562        3.02629031962892       -0.60982682563171
C            0.30250435771273        3.63234244894900       -0.28145058926519
C            1.65881199695969        3.94654436070886       -0.21868167738572
C           -1.90806289932022        1.06007017247121       -1.80672915449019
C           -3.18586705056310        0.54802708182577       -1.82780760345995
C           -4.11401802181142        0.93223641234335       -0.86230144576296
H           -0.43059967879441        4.35627876393356        0.03300982362998
H            1.93510492467605        4.91626273317811        0.15148956288763
H           -1.19159171706702        0.75214873034152       -2.55104672785007
H           -3.44509545215979       -0.15921101445732       -2.59465250892343
C           -5.50542810774532        0.32954252914297       -0.78595084158217
C           -4.51029481509023        2.45602842089384        1.06699399187986
N            0.82827681834337        1.48623029356245       -1.14886024996482
N           -2.42846219571265        2.42207693546745        0.06698705672052
C            3.00697546498338        0.71272003857263       -1.44016301277069
C            4.11853175248793        3.33518183741295       -0.52904573911421
C            4.77291290963542        2.36981722376330        0.46997098635632
C            4.75291514571342        3.18043054098730       -1.91827286432281
C            4.38303323265747        4.76574647442981       -0.04793383539956
H            4.70408708791933        1.34110905253184        0.12991420821321
H            5.82433363193208        2.61998847219826        0.58966634881870
H            4.28574066673255        2.44511086007907        1.44008845804219
H            5.80937872267738        3.43338724332034       -1.86986607615627
H            4.66506506621287        2.16280171207124       -2.28567529885320
H            4.27125111293281        3.84893445001904       -2.62944979982782
H            4.00133580338356        4.92122147509588        0.95804208158470
H            5.45644540727319        4.93982758116731       -0.02700099068574
H            3.93922891136740        5.49671767982654       -0.71987254878727
N            3.61546691306951       -0.21849164465410       -1.74346934155476
N           -5.14826161799335        2.93986042680195        1.88772190106823
C           -5.68257767519869       -0.33248232140461        0.58873606599272
C           -6.56006415099407        1.42478319420739       -0.99802921087007
C           -5.71960393287316       -0.74715176220110       -1.85556851892027
H           -5.65040766940951        0.39797579891696        1.39071420338267
H           -6.64279064270370       -0.84078986072157        0.63123802347242
H           -4.89435783115307       -1.06387344857784        0.75697451205683
H           -6.50685070510820        2.18574771259317       -0.22592735699776
H           -6.41914275755171        1.90193223864410       -1.96623584052331
H           -7.55426068430510        0.98544171478998       -0.97316721929782
H           -5.00415532140950       -1.55859453473362       -1.74515521083333
H           -6.71767583588155       -1.16408125420335       -1.74318690129412
H           -5.64492876192283       -0.33229527492844       -2.85819268860180
