71
 energy: -114.718550273693 gnorm: 0.000845984996 xtb: 6.5.1 (b24c23e)
Si           0.54171582291471       -0.61845926511302        0.58227583609907
O            0.58755626480343       -1.64625044728500       -0.65728477900484
C            0.93128154573920       -3.01629031469665       -0.65121202124869
C            2.34784160267766       -3.22003402490831       -0.18176372251107
H            0.23680843739543       -3.54790515012942        0.01108610131784
C            3.33627632030030       -2.31908678429439       -0.55464582296056
C            2.67691786334511       -4.30341623940994        0.62036312905637
C            4.63700717353964       -2.49201748363940       -0.11732068367746
H            3.08055093681971       -1.46878403720438       -1.16991949357658
C            3.98036422950194       -4.48013940992897        1.04852890675934
H            1.90597422073311       -4.99761244694531        0.92073729535929
C            4.96145351690137       -3.57378999422501        0.68313980167927
H            5.39446419006604       -1.77687997645519       -0.40155304594557
H            4.22827832415232       -5.32172742828635        1.67868907448850
H            5.97657282046080       -3.70773564273265        1.02771789230248
C            0.77403732277293       -3.53002732295660       -2.09259233146575
C           -0.60402211693149       -3.48516446691575       -2.52863000308330
H            1.14024814446995       -4.55895338340754       -2.13968024962921
H            1.38371752474024       -2.90337039874285       -2.74843714437622
C           -1.74717215113576       -3.44162898745608       -2.87874127698295
H           -2.74475301569716       -3.41945349627265       -3.20205951682766
Cl           2.13156234219924        0.49834382260738        1.35793335512859
Cl           0.56088832683627       -1.96699255818132        2.21891222206403
O            0.37156159633376        0.64116073627812       -0.80896691218588
O           -0.97468969311199       -0.07573051232090        1.14951778215761
C           -0.78194600848226        2.52312606866833       -0.06712429436389
C           -1.98115142385972        1.76308628592266        0.01634955205032
C           -3.01824820759424       -0.41212881447291        0.09890873671700
C            1.54717685892948        2.60285526045798       -0.60191190310655
C            1.65982084951354        3.94633826943822       -0.27407729386496
C           -0.71213387393311        3.89744347561423        0.21676020285773
C            0.46899100959325        4.58213959822740        0.13802152397908
C           -3.23916523537558        2.29267477942862       -0.28917543952973
C           -4.34447369800813        1.49099913470098       -0.42000700953881
C           -4.24608037518143        0.08323747108639       -0.29594768873577
H           -1.60580962434937        4.39551575066233        0.55654995031434
H            0.48065927224222        5.62486814746916        0.40218381493573
H           -3.31694539679320        3.34991136198309       -0.48771505188200
H           -5.28611886599509        1.94488434618494       -0.67057576149490
C           -5.42280701395998       -0.83600357105218       -0.57466057635926
C           -2.72275616107931       -1.77726788518183        0.32500755000642
N            0.37592193225275        1.93203988628544       -0.49176876947491
N           -1.96050626431223        0.42344975900447        0.34556685574529
C            2.58526113041008        1.81311961644309       -1.16763211919149
C            2.99149271068775        4.67049631377922       -0.33933978667468
C            4.00441272473200        3.92352969064471        0.54042104058143
C            3.48031456262317        4.72327592170154       -1.79452290494979
C            2.88623899015178        6.10945435487881        0.17741290473454
H            4.16445446097313        2.90769861014087        0.19421248260531
H            4.95819640341767        4.44506949843287        0.52716544972891
H            3.64865111331920        3.87547824737818        1.56710549447837
H            4.41735586860876        5.27212572074105       -1.84455871925155
H            3.64874957088783        3.72863418665765       -2.19407694416978
H            2.75050419020358        5.23174521614980       -2.42212248900293
H            2.54137592508087        6.13369371834936        1.20835761338814
H            3.87138645629953        6.56831896139229        0.14577776594236
H            2.22258822007630        6.70872605349855       -0.44208145515640
N            3.36722084155800        1.18368662314102       -1.72042706824085
N           -2.44964085396942       -2.87417319330887        0.52033241901059
C           -5.04096935977887       -1.82836457457938       -1.68222791396101
C           -5.79036976900481       -1.59060997177031        0.71185182691463
C           -6.66095028823731       -0.06200004166026       -1.04052304749711
H           -4.21252755716048       -2.45943558663526       -1.37651353965676
H           -5.89117777105574       -2.46731473300042       -1.91043252029908
H           -4.75843946349158       -1.29220164814726       -2.58685202554787
H           -4.97409935196709       -2.22128158263496        1.05001457612055
H           -6.03714354054868       -0.88798544450949        1.50555150918419
H           -6.65623688371535       -2.22292795984119        0.53145606381674
H           -6.46039932166687        0.49320863798764       -1.95401605559283
H           -7.46086202307753       -0.76846778506750       -1.24906275968276
H           -7.01563030876077        0.62060303802057       -0.27186158882280
