71
 energy: -114.716833359695 gnorm: 0.000786578251 xtb: 6.5.1 (b24c23e)
Si           0.39222839823273       -0.52388443525608        1.04086763498431
O            1.31051110466799       -1.82604361676651        1.03398435221011
C            2.68942572973357       -2.00399459876030        0.71089107008630
C            2.81223747166651       -2.68472610520354       -0.62586357377247
H            3.18363821512927       -1.02808051608605        0.67000088030568
C            1.92309436675280       -3.68790935500233       -0.98656783413248
C            3.82945934258276       -2.32261540415903       -1.49848511905375
C            2.05177089163968       -4.32523824863995       -2.20774900408156
H            1.12381255899727       -3.95507912039990       -0.31140506489876
C            3.96084528778089       -2.96824340469654       -2.71519516159577
H            4.50639643656561       -1.52714895642558       -1.22710653919730
C            3.07433687406587       -3.97076083428275       -3.07123132571025
H            1.35438101459211       -5.10233331285379       -2.48454005947215
H            4.75435758030575       -2.68345658197296       -3.38995067408555
H            3.17709793466556       -4.47186009307553       -4.02251718733710
C            3.32201350139552       -2.85001628770937        1.82717009056003
C            3.27762354649087       -2.13930942811597        3.08766311869076
H            4.35813429489355       -3.06904859163385        1.55869992912363
H            2.77034151375892       -3.78941686088195        1.91556549420866
C            3.20106818831127       -1.51112504519475        4.10282301995745
H            3.15700242102183       -0.97743589210507        5.00456410289836
Cl           0.84123591783726        0.84981911778490        2.43689915177701
Cl          -1.44836334630279       -1.27088375505190        1.25399526778483
O            0.55379874120088        0.16745619164894       -0.44650250467563
O           -3.35911438226048        2.25228401829890        0.46444056518490
C           -0.88205858325517        2.05766897578580       -0.69534919359798
C           -1.96695352214097        1.14140881377003       -0.97598816471789
C           -4.12403462396574        0.33177160661759       -0.45509004771721
C            1.51840176143967        2.31741764050922       -0.48589027377791
C            1.38572495973789        3.65695767488920       -0.12701200992331
C           -1.01576925889273        3.38321020408728       -0.36430052190703
C            0.09500670656451        4.17879618058303       -0.07902190407199
C           -1.82303876584788        0.08047049811713       -1.86481908894475
C           -2.81156243457171       -0.86509655300535       -2.02505130648478
C           -3.98887530247715       -0.78446648087601       -1.28486889691421
H           -2.00404268591779        3.80821555404566       -0.31290596711495
H           -0.07596690494507        5.20357369783613        0.19364273459688
H           -0.90854856350404        0.00543114920545       -2.43122472873383
H           -2.64810731646750       -1.66891200424285       -2.71973377733981
C           -5.06445051620818       -1.85393359151985       -1.34537195029401
C           -5.27215923736868        0.61682349428057        0.32581459860450
N            0.40030409349991        1.53023903258869       -0.79240089634172
N           -3.15324389800611        1.28045524506765       -0.30697430253728
C            2.71648526179715        1.60331131365167       -0.55597542149486
C            2.61242184586272        4.48520663854864        0.21767223930642
C            3.56115048078165        4.52242252999247       -0.98848804080813
C            2.24722060141030        5.92878995705240        0.57828927591260
C            3.31342763670131        3.85814081572885        1.43190349754524
H            3.05661733662727        4.95145160839426       -1.85225610132775
H            4.42753025545169        5.13695256081996       -0.75582063427790
H            3.91132670840326        3.52860894810828       -1.25078383964538
H            3.15741866055472        6.47775049226081        0.80871141258752
H            1.75527178203068        6.43165502609837       -0.25102274265842
H            1.60521895659274        5.96514708995218        1.45494101165581
H            3.69598966847012        2.86810073130483        1.20386732343638
H            4.14933992603857        4.48266419050015        1.73775785573951
H            2.61962826107131        3.77506906034196        2.26603035156672
N            3.65564537934368        0.93340857172707       -0.60312250518812
N           -6.19207078431869        0.89213282395098        0.95200605966858
C           -5.25567788666751       -2.43397292035357        0.06419886169511
C           -6.37732639543490       -1.25064272553191       -1.86405309096245
C           -4.67212359789340       -3.00500391333994       -2.27799005552662
H           -5.65224619244971       -1.69209211984440        0.74981757715510
H           -5.95128968270433       -3.26879552119936        0.02761523347002
H           -4.30433933972500       -2.78895452070214        0.45542449121111
H           -6.74618572699014       -0.47020018350872       -1.20632261679665
H           -6.23308850270911       -0.82851616990129       -2.85698286276500
H           -7.13628003936116       -2.02654491828241       -1.92760603070231
H           -3.75250873141973       -3.48146722389719       -1.94713239445229
H           -5.46012028934874       -3.75438965805758       -2.26633457599700
H           -4.55494110350510       -2.66312450501293       -3.30390421087965
