77
 energy: -120.982234812748 gnorm: 0.000628682048 xtb: 6.5.1 (b24c23e)
Si           0.58866327967936       -1.76245772306002        0.86086769345478
O            1.85085325640010       -2.74172224727696        0.47677180987677
C            2.60665044607200       -2.80687962146856       -0.63081905382961
C            3.93821248076469       -3.19983588720034       -0.58463919289035
H            2.13379417257302       -2.53241973103896       -1.56422427010363
C            4.57733120377003       -3.53363197483131        0.63700504007748
C            4.70645828292784       -3.26665569183120       -1.77525520028415
C            5.89720423113339       -3.90957163736580        0.65434493613260
H            3.99889874411411       -3.48392236470974        1.54654497205325
C            6.02490885230901       -3.64526119960327       -1.73543980032789
H            4.23253230980663       -3.01305512637761       -2.71175754009725
C            6.63301801542804       -3.97039882583969       -0.52569109138287
H            6.37153118078689       -4.16165417031268        1.59213172057338
H            6.59846555974863       -3.69252536111900       -2.65017290887004
H            7.67012277416165       -4.26872354147873       -0.50403069388791
C            3.17712452392387        0.51426678966832       -0.86996814263600
C            2.24335327710773        0.29760375026674       -0.00214174387403
H            2.95852811908296        0.88899547402810       -1.85668502271400
H            4.21538798191754        0.34530418470412       -0.63552373964348
C            1.29758617704080       -0.01261957508008        0.83261824790021
H            0.91823614926797        0.70641220450442        1.54239376134036
Cl          -0.78123525002312       -2.10300466705562       -0.60533936511769
Cl           0.08025117097352       -2.45999914805194        2.65467352974383
O           -1.51513334892515       -0.04294208551441        1.55366259710515
O           -0.38319521657739        1.67665534484366       -1.97211286711152
C           -2.29714821645373        1.21789986786911       -0.16971266946126
C           -1.19307295031468        2.15707195272825        0.09801812179540
C            0.77456380437930        3.16812379858843       -0.71623085869934
C           -3.36062153906092       -0.78676992683640        0.46124279372554
C           -4.28929369136798       -0.68788662962099       -0.57931513735126
C           -3.21447659707093        1.39581997712590       -1.19622451486561
C           -4.19321273043852        0.42863836053991       -1.39561700687967
C           -1.06258570428020        2.84655806549507        1.29551219688090
C            0.03858877128543        3.67710656108708        1.47934926866913
C            0.98476089445107        3.85725327220001        0.48254629759376
H           -4.88119435077675        0.57100883483799       -2.21032054960965
H            0.13266668406479        4.18565264997301        2.42250765087371
C            2.19329109577228        4.76014341092959        0.66296573758949
C            1.58439585039448        3.28103121340593       -1.87010559510030
N           -2.37372596505900        0.13326768014335        0.63764920471909
N           -0.27488548463408        2.31093674848551       -0.89208837640076
C           -3.33108391378024       -1.81750616556616        1.43112190343629
C           -5.33631168483845       -1.76663050906526       -0.79527753652280
C           -4.62428730622119       -3.10754528430977       -1.02418018264285
C           -6.25398907400238       -1.84555278656243        0.43320122446239
C           -6.21021269122068       -1.48124298944912       -2.02142127349173
H           -4.06320529840982       -3.41716582023352       -0.14844381238953
H           -5.35682705911391       -3.87880933865731       -1.24904215047098
H           -3.93426518672933       -3.02860086039948       -1.86155780342126
H           -7.02114305774210       -2.59789432085832        0.26817925267212
H           -5.70225717079834       -2.11646424868467        1.32776328666168
H           -6.74329014804472       -0.88782483217053        0.60257573167302
H           -5.61146235501326       -1.42778287124280       -2.92740630371883
H           -6.92510756341535       -2.29156645997091       -2.14219166665177
H           -6.77320574975208       -0.55799015321669       -1.90297613147408
N           -3.30094579721157       -2.60878327138191        2.26001960420200
N            2.19195261108287        3.36950998370256       -2.83912117922687
C            3.47178743866045        3.93688688023328        0.45150902518067
C            2.12277374279131        5.91326806654981       -0.34861737109875
C            2.25242265624664        5.36727326905211        2.06880716218432
H            3.53956426008457        3.55708910691707       -0.56275573463900
H            4.34341770196766        4.55874954761422        0.63987340011079
H            3.49447269819695        3.09157609676585        1.13650292952894
H            2.15075647669498        5.55016944523926       -1.37115003509133
H            1.20702662045121        6.48471806946466       -0.20764167009512
H            2.96889312710004        6.58001361426512       -0.20289082630858
H            2.31248442533507        4.59326550008969        2.83018530159974
H            3.14415338461695        5.98407531724864        2.15016950734042
H            1.39180881339972        6.00295627204858        2.26432256487291
C           -3.14220996933455        2.59599579666185       -2.07835632337871
H           -2.96350470956682        3.50120832140014       -1.49960974302632
H           -2.30694049131395        2.46900701429304       -2.77030234979324
H           -4.05685044670955        2.71172741674267       -2.65238864097053
C           -2.08129948645251        2.69240754582255        2.37452869645421
H           -1.97347015610176        3.47171822590105        3.12343396456835
H           -3.09144127602973        2.72136899158911        1.96855656059368
H           -1.94161260883188        1.72212142448202        2.85585537972530
