77
 energy: -120.974383228459 gnorm: 0.000724222614 xtb: 6.5.1 (b24c23e)
Si          -0.28703384955600       -1.54546795021748       -0.82091647630949
O            1.23237087214867       -1.17400108402299        0.05588267004753
C            2.11932408341913       -1.99953266638091        0.45365746974444
C            3.12904423715083       -1.61558013010430        1.36578465856069
H            2.08963250761815       -3.01952018239913        0.08095501892650
C            3.07387636942373       -0.36549055905645        2.01758928167126
C            4.19588646990917       -2.48544626683418        1.66661754146208
C            4.04813743549915       -0.00649270368902        2.92013186717774
H            2.23636888092491        0.28367730728485        1.81224343206550
C            5.16875276050318       -2.10738378139618        2.56277707274966
H            4.23769680523356       -3.44662422715188        1.17815208840867
C            5.10404711425559       -0.86888988815352        3.19232164682027
H            3.99272801956684        0.94792764865257        3.42478015181483
H            5.98718602917720       -2.77602473324645        2.78467157111352
H            5.86820550539483       -0.58098077784193        3.89843780846737
C            1.65756868189619       -4.66338937702353       -2.26191990298984
C            1.02057587122309       -3.53822294739441       -2.34099458831788
H            2.73103035517237       -4.70267136997903       -2.16789641938443
H            1.13930456506666       -5.60705410855876       -2.30502135778587
C            0.37368790949751       -2.41893645106087       -2.37147125544187
H            0.18167649987815       -1.94475832817641       -3.32318642403233
Cl          -2.36697273911808       -1.37605059372505       -1.45522473144202
Cl          -0.69373056018069       -3.13870877509312        0.49498457262263
O           -0.94381893641881       -0.22560449954501        1.03481903863104
O           -0.15505277768776        0.13669942643353       -1.48696541309179
C           -1.59853806249515        1.70786819968900        0.06250711420951
C           -0.15772956077019        1.97624913735431       -0.09870592648316
C            1.86737282305085        1.22673335948872       -1.11674520845836
C           -3.17948330989797        0.17634509958005        0.90349384602450
C           -4.24998624323418        0.94340394321892        0.43474274885088
C           -2.61178196316332        2.52146587305836       -0.41755859357388
C           -3.92944765446594        2.11769864095157       -0.23170647655288
C            0.51472666392934        3.00408954277983        0.52541930528091
C            1.89536295307633        3.14900957779360        0.28338945841406
C            2.59127582262219        2.28826260198972       -0.54121594569442
H           -4.70573970013289        2.74232721070414       -0.63851515698890
H            2.39662937971483        3.96381586340546        0.77559673738445
C            4.06310284036091        2.48790248948125       -0.86633285979056
C            2.41002128508642        0.23411074926640       -1.94251368984099
N           -1.89668354932454        0.54691016587939        0.68348966699550
N            0.51822825352157        1.12150052985729       -0.89598296957208
C           -3.29486474860213       -1.01118055735298        1.66876835818200
C           -5.68133098389348        0.47353798982332        0.61518415119024
C           -5.82185835031023       -0.91381562922507       -0.02701272538213
C           -6.02007188006905        0.41564367267249        2.11184470392718
C           -6.68352858120664        1.41441367163653       -0.06211776591712
H           -5.23572638102844       -1.65920581767120        0.49932499243853
H           -6.86380314657241       -1.22292394891233       -0.01044870865156
H           -5.47592133013617       -0.88872951623956       -1.05741751240485
H           -7.05018629081019        0.09302683414266        2.23896167182163
H           -5.37985229002903       -0.28447268167936        2.63884751051102
H           -5.90989512500173        1.39941070259584        2.56557645040626
H           -6.50130913452613        1.47487483366715       -1.13211526468671
H           -7.68738565418026        1.02294404458692        0.08241155497329
H           -6.65239990430259        2.41216834784043        0.37089260265098
N           -3.35524598726511       -1.91914882252918        2.36451406301448
N            2.83803294995110       -0.58913054177663       -2.62529250989682
C            4.88190607244773        1.26033251954917       -0.44715423917129
C            4.19576993230589        2.72091417924284       -2.37959205315053
C            4.65011953436428        3.70744711173952       -0.14697667569183
H            4.53626789973114        0.35725488368453       -0.93900039352513
H            5.92507018586112        1.41216891775659       -0.71336676265641
H            4.81835675337326        1.10943370835636        0.62788708639100
H            3.88091550901240        1.84845674818278       -2.94362050615431
H            3.59213307189302        3.57281801015931       -2.68804955587939
H            5.23352274848021        2.92825197786974       -2.62814708996418
H            4.59380331253844        3.59333722297187        0.93298764407377
H            5.69925903231938        3.80354842346460       -0.41540433442860
H            4.14639518870538        4.62509639323730       -0.44232989085268
C           -0.16882532710981        3.95423376504463        1.45690375491435
H           -0.22414831626475        4.94694543491195        1.01027190051355
H           -1.17459454667029        3.62340520110895        1.69851022822147
H            0.40176349402990        4.03973634182887        2.38001454560396
C           -2.31635902345375        3.78787257040958       -1.15666952183175
H           -2.92657590635617        3.83827206774170       -2.05543726458924
H           -2.56287674164895        4.65067501890848       -0.53862825668087
H           -1.26972112344463        3.84956095643514       -1.43952455901706
