77
 energy: -121.056512202694 gnorm: 0.000402282999 xtb: 6.5.1 (b24c23e)
Si           0.71224138487178       -0.66106271811945        0.56521152697143
O            0.80447923753157       -1.73986384264978       -0.62821097437946
C            1.29173465138980       -3.06554639832185       -0.57559955855324
C            2.70748130320744       -3.11180887614827       -0.06337619233578
H            0.63470188111725       -3.64943746975589        0.08122575412892
C            3.62179194457415       -2.14941828214408       -0.47035310211275
C            3.11040734992786       -4.11166310976482        0.81017723752293
C            4.92032148361401       -2.17725660451759        0.00527824170665
H            3.30852200032923       -1.36380769481966       -1.14270411517489
C            4.41181202544408       -4.14324890772746        1.27743474280049
H            2.39640285852002       -4.85333617905197        1.13633646460846
C            5.31779536609975       -3.17489549260308        0.87864725481819
H            5.61898780862479       -1.41481038421715       -0.30574444796624
H            4.71601336551352       -4.91927451703951        1.96442730203784
H            6.33073678238074       -3.19456500412369        1.25376188227229
C            1.24172636743217       -3.62703989001897       -2.00678527631814
C           -0.11288715763478       -3.79445300434772       -2.48335401443373
H            1.75308421689615       -4.59329153705744       -2.02049772097627
H            1.77325246332315       -2.93336580700811       -2.66295023639283
C           -1.23142849904722       -3.94327543824701       -2.88112667704402
H           -2.20717339164656       -4.08117056039986       -3.23910944916868
Cl           2.23250591483888        0.61499141956961        1.22062247676567
Cl           0.92384189516319       -1.92298238080332        2.26281950751816
O            0.37929289479796        0.51731390465068       -0.88787805971769
O           -0.81759684026560       -0.20656619102931        1.18185206953280
C           -0.91394635645951        2.26394771530713       -0.05801012613735
C           -2.04192876024648        1.36085695581607       -0.11120623315383
C           -2.75906841902864       -0.94000893007643        0.11443353970445
C            1.36949060182811        2.58512689675462       -0.70255928857417
C            1.37555549636634        3.90143309799632       -0.25988576106635
C           -0.92903143920733        3.55802623010867        0.47066603120332
C            0.20444511052968        4.34620307371710        0.36869014537401
C           -3.25429519708241        1.65889929393707       -0.71988395411727
C           -4.22745166315730        0.66565318711755       -0.83488164547675
C           -3.99463321496493       -0.66013893257673       -0.45351858159451
H            0.17193662622153        5.32690525100425        0.81074863419238
H           -5.15306437578176        0.93417401099461       -1.31205633709717
C           -5.02438320692224       -1.75538880894405       -0.67665479524345
C           -2.29358351671549       -2.21871085592176        0.46883855986390
N            0.26651750700007        1.80621895168383       -0.57597277431488
N           -1.87970786905734        0.08582744830797        0.37747712625228
C            2.43911158670612        1.92969028148054       -1.36332158191871
C            2.60705035631147        4.77593783278812       -0.40555628454144
C            3.77659771570750        4.11508721646588        0.33707663075135
C            2.94038731095299        4.93928106516524       -1.89586627273032
C            2.39421079766553        6.17330253560734        0.18606753461184
H            4.01889245548138        3.14469454590122       -0.08332453133382
H            4.65780353001661        4.74855063074657        0.27292511324007
H            3.52491253671875        3.97182030259770        1.38522081588964
H            3.80521275313162        5.58826281204071       -2.00800964811472
H            3.17141308956803        3.98545515968216       -2.35881538827437
H            2.10245204530367        5.38971888392259       -2.42529961630643
H            2.19655761755375        6.12389370918801        1.25400754277373
H            3.29974317976399        6.75811892838845        0.04421592066056
H            1.57951339474371        6.69585792794015       -0.31073353855782
N            3.24617007912024        1.39314617373100       -1.97634105799281
N           -1.88436693498215       -3.25389148649699        0.75736831383892
C           -4.45771053501527       -2.78663255242712       -1.66164688890540
C           -5.35127576388939       -2.42371515945631        0.66673611081819
C           -6.33288734532539       -1.20930687343360       -1.25898777114560
H           -3.56771177333740       -3.26337445060615       -1.26273339772071
H           -5.20235583153512       -3.55517351419480       -1.85647314022939
H           -4.20273681947066       -2.30270464747693       -2.60300889990156
H           -4.47753364629722       -2.90229183938441        1.09722607733192
H           -5.72774693871356       -1.68706702989629        1.37412957512278
H           -6.11622931955263       -3.18275106146411        0.52232835157856
H           -6.17987584485313       -0.77721898574399       -2.24520667404347
H           -7.04106612633429       -2.02792189458098       -1.36307266589857
H           -6.77846237511155       -0.46537707814256       -0.60250621977399
C           -2.10727900329973        4.07399060565223        1.23695495844129
H           -2.58301669804281        4.89898151672046        0.70916781015614
H           -2.83992680396140        3.29278181165381        1.41240428714132
H           -1.76739106986335        4.45317257241788        2.19910967924851
C           -3.52545443959118        2.98667671106966       -1.35767938478080
H           -4.00475888038432        2.83353195929002       -2.32248257161175
H           -4.20720569573877        3.57196071600821       -0.74217643818566
H           -2.61311923380285        3.55460505526563       -1.50910392554715
