77
 energy: -121.013556115479 gnorm: 0.000889480748 xtb: 6.5.1 (b24c23e)
Si           1.23468423446494       -1.59482188473079        1.69617389384259
O            2.55842159021846       -1.68590246934657        0.75316275307818
C            2.84327966463434       -1.79851971665584       -0.60050780598768
C            4.32665822684677       -2.00577078291103       -0.82213989270544
H            2.27327240562358       -2.63293520900854       -1.03557053339684
C            5.24005261756984       -1.81283492613001        0.20240480595577
C            4.77173636958499       -2.35538384294921       -2.09094825975043
C            6.59278384265257       -1.98210778500667       -0.03939805652202
H            4.88795601875316       -1.54087332582292        1.18514901648706
C            6.12377505550710       -2.51870350404599       -2.32811512490791
H            4.05449181875947       -2.49318833259258       -2.88616787393160
C            7.03654179066781       -2.33406342583811       -1.30200373851998
H            7.30062640758608       -1.83639666180321        0.76277257686329
H            6.46668968843615       -2.79250315601900       -3.31478355976303
H            8.09223281295079       -2.46486695796247       -1.48807227114699
C           -0.60862926332996       -2.90737369819926       -1.53749614739380
C           -0.49612704978139       -2.58201666404962       -0.29271723389410
H           -0.84802937035951       -2.15026524785899       -2.26580629547998
H           -0.47589455985239       -3.91853622440678       -1.88781943041384
C           -0.36349973053982       -2.22136224790120        0.94954490962314
H           -1.23558737265364       -2.22638616971627        1.59127849397354
Cl           1.08229825092045        0.30721762073218        2.35158360525207
Cl           1.78875163223400       -2.74146441922857        3.26768707966240
O           -0.57623743734403        0.17480767587861       -1.48983153018749
O           -1.99468401550678        0.22345845908453        1.33294349472506
C           -1.09982831017363        2.05397656910587       -0.30968894067107
C           -2.48411242736255        1.54688011569342       -0.44085363027668
C           -3.96790310218878       -0.13540231160708        0.26668938764970
C            1.16540732822646        1.42338327687618       -0.66516047677630
C            1.62114670968446        2.67135742854561       -0.12551407866876
C           -0.70674478682737        3.21917713216776        0.31362197215209
C            0.66740871543756        3.52910720379514        0.34836893251813
C           -3.36316615859695        1.93051674745065       -1.43414620448601
C           -4.58360140813432        1.27021636969950       -1.54617036911015
C           -4.90347931390962        0.20686497351754       -0.71589366558303
H            0.94718849521934        4.46811848782931        0.79454130496822
H           -5.26064248045933        1.58458091924407       -2.32082397102028
C           -6.19672940081238       -0.57865698923272       -0.86239588916185
C           -4.10303302989749       -1.19631253673782        1.19184050715895
N           -0.19887925845673        1.20425636357734       -0.83848081493902
N           -2.78856886731230        0.53721562945577        0.41331706613672
C            1.91385711873369        0.36373575609688       -1.01146450938666
C            3.10993891117275        2.95656090389631       -0.09273702558325
C            3.80610973166008        1.94556007324041        0.82817738569512
C            3.67796454110825        2.84371431390892       -1.51537175707470
C            3.40979208222611        4.36447345117025        0.43097108393428
H            3.68268773716446        0.93074721582933        0.46329353010316
H            4.87093058005163        2.16209508783360        0.87745636073763
H            3.38856704449287        1.99944199585310        1.83039374636640
H            4.74368823710701        3.05994829359987       -1.50675853156434
H            3.53670921760355        1.84404812164965       -1.91757058743365
H            3.18730135528512        3.55538284425680       -2.17681570884579
H            3.08102971762567        4.47582993497640        1.46094961788956
H            4.48318242693213        4.53677968635625        0.40186619509380
H            2.93057591882740        5.12283264646689       -0.18407252050714
N            2.46481735289772       -0.64487850207244       -1.38102945610347
N           -4.15820771388015       -2.05025723002755        1.95575879596721
C           -5.85704649348457       -2.03972040283248       -1.19098396354876
C           -6.99943162352551       -0.49455932472175        0.44354517998336
C           -7.07760388762447       -0.03396001038547       -1.99210240288983
H           -5.30675256163145       -2.51293493832617       -0.38389296287390
H           -6.77303087895235       -2.60262551878811       -1.35336473236351
H           -5.25449071781092       -2.09171232813789       -2.09576288993172
H           -6.45677075831299       -0.93265401965652        1.27532393884119
H           -7.22359210393771        0.54340934475825        0.68322784553515
H           -7.93832309688808       -1.03145544801056        0.33213638730842
H           -6.57473230108750       -0.10339522991285       -2.95380902261405
H           -7.98698958240890       -0.62755383973878       -2.04922808461892
H           -7.36567069196359        0.99855202507625       -1.80756383768568
C           -2.97561969625758        3.01663297193247       -2.38640505598461
H           -2.74454608802038        3.93623145882696       -1.85209893806463
H           -2.08314748938159        2.71988545772179       -2.93549532639807
H           -3.77475546063463        3.21071937404433       -3.09626060634256
C           -1.69657099826455        4.13475718038021        0.96056198566863
H           -1.55174110576854        4.12340997550203        2.04079648698669
H           -1.55484858040464        5.15912071468359        0.61744956961996
H           -2.71800347508559        3.82665048174150        0.75176080482570
