77
 energy: -121.056141612755 gnorm: 0.000913232674 xtb: 6.5.1 (b24c23e)
Si           0.46495956181996       -0.57321329807753        0.54367282916656
O            1.71419052352215       -1.53424777548345        0.86212688063240
C            2.10872755768321       -2.83243888088862        0.49328558296644
C            3.34722450292442       -2.78358001276992       -0.36516049726746
H            1.29887465502492       -3.32469648508173       -0.05829700357873
C            4.17533415811873       -1.67102437156843       -0.36432629387537
C            3.67714632112052       -3.88005557668767       -1.15295709405373
C            5.31527342944344       -1.65101973584137       -1.14873366656071
H            3.91449509032495       -0.81457356192657        0.23734361971543
C            4.82297985525149       -3.86282143671469       -1.92664993473297
H            3.02867562430449       -4.74526981270239       -1.16299505028270
C            5.64401301671222       -2.74690605854720       -1.92713182055730
H            5.94303809529579       -0.77301895453990       -1.15023039495613
H            5.07234308454743       -4.71986772224134       -2.53585824485540
H            6.53536103050571       -2.73282132499700       -2.53760963998399
C            2.37295883407614       -3.62176204059902        1.79085201358736
C            1.13783745464944       -3.76043635662148        2.53301332068673
H            2.77724479608894       -4.60493974316204        1.53831957108511
H            3.10668415381491       -3.07403857090945        2.38763570920921
C            0.07929022891703       -3.81902375584914        3.08795132861328
H           -0.84625095652183       -3.87831504783193        3.57734112216982
Cl           1.35627807771584        0.81216991663552        1.92634731970955
Cl          -0.59323181600863       -2.01434935252943       -0.72304957875296
O            0.48766835474385        0.48689592256206       -0.81844012800313
O           -1.03666513040195       -0.03987544914814        1.25871236054857
C           -1.06635539457759        2.16532825844433       -0.31674041750418
C           -2.12411538637912        1.16120011625455       -0.42524245954808
C           -3.04257069118744       -0.89281273464117        0.42912447398373
C            1.29445800836366        2.62730726572157       -0.39642902295444
C            1.09896242565610        3.94800553065690       -0.00653521735904
C           -1.30162963585323        3.48144660816634        0.04406790209643
C           -0.21996468226962        4.35242814316056        0.19568555939623
C           -3.15179919001983        1.22339610340316       -1.35151964923114
C           -4.10790191077489        0.20580928188746       -1.38233681368394
C           -4.08195118804684       -0.87034609399718       -0.49524728522029
H           -0.43453097888133        5.35305016866417        0.52690311176257
H           -4.86251393257609        0.25896107224877       -2.14714197526147
C           -5.10167419112632       -1.99374118526448       -0.54867236180531
C           -2.84837321915168       -1.86731986627824        1.42738913634498
N            0.22307093563181        1.79567977581354       -0.57910567984135
N           -2.11487277979156        0.11211957766808        0.45199362778758
C            2.53611225049021        2.02531942814881       -0.67921875565261
C            2.27881040782219        4.87265114087990        0.23091325804949
C            3.17445043748216        4.25425168250667        1.31341711976733
C            3.06001697244650        5.05270042606150       -1.07860926593923
C            1.83681673500087        6.25808379195937        0.71369221053338
H            3.60596881624366        3.31522381362114        0.98462984144821
H            3.98332484057625        4.93875241220201        1.55663064882426
H            2.59712223013621        4.05701900253099        2.21331814099712
H            3.89294443277351        5.73206919861814       -0.91626595454647
H            3.45798497919827        4.10883189514529       -1.43698441824539
H            2.41753810096172        5.47498110912935       -1.84942796291960
H            1.30468006461071        6.19274905717994        1.65940962659978
H            2.71852597401901        6.87446352985571        0.87095195893155
H            1.21080715930659        6.75676091925333       -0.02313905515396
N            3.51929962533185        1.51252257131311       -0.98036528890796
N           -2.69335075314209       -2.60391042166768        2.29526591934912
C           -4.36539819742824       -3.31597271359098       -0.80556684239175
C           -5.86732308143893       -2.05174512183936        0.78108277485738
C           -6.12273338001214       -1.79258982624581       -1.67340040798009
H           -3.68220247078409       -3.55630971904957        0.00214581910027
H           -5.08446197693893       -4.12591146764361       -0.89947089968213
H           -3.78765942623055       -3.25274621498032       -1.72468417901872
H           -5.20423451728714       -2.26258434459730        1.61378033926920
H           -6.37290609048505       -1.10617592971542        0.96948256206386
H           -6.61632934431696       -2.83834885542779        0.73709761743560
H           -5.63839600280969       -1.77598970562119       -2.64659565002627
H           -6.82338382872548       -2.62396411918087       -1.66595013669438
H           -6.69291190343281       -0.87654760386773       -1.53493670154447
C           -3.22321708108874        2.30702385997972       -2.38178668753475
H           -4.09661552416282        2.93441995939387       -2.20829729762054
H           -2.33406304473460        2.92936889729494       -2.37496728646204
H           -3.32863598067889        1.86145045743017       -3.36913202576398
C           -2.67404404283305        3.98390990491111        0.36855405087145
H           -2.65285934382888        4.50667535289636        1.32260091658613
H           -3.00193558235399        4.69405931830069       -0.38976942370343
H           -3.39684814637034        3.17681977840556        0.43073819552871
