77
 energy: -121.061266391279 gnorm: 0.000845313970 xtb: 6.5.1 (b24c23e)
Si           0.13513798393686       -0.77489869472155        1.85669284117315
O           -0.58436852646049       -1.97594206400375        1.10749469214279
C           -0.73065740685955       -2.40720403255377       -0.24849285411819
C           -2.16355296388675       -2.21818993571332       -0.66487467336847
H           -0.08841523084805       -1.80449704196561       -0.89713577291249
C           -3.19725642114200       -2.74558026948171        0.09719637977021
C           -2.45491184741079       -1.48608686287630       -1.80792473448386
C           -4.51117538057162       -2.55432479313067       -0.28953064396891
H           -2.97207435187243       -3.28354332328005        1.00515974550320
C           -3.77021180907158       -1.30675608654744       -2.19761212468034
H           -1.64570443527776       -1.05453353256791       -2.37834713649544
C           -4.79926346404380       -1.84138146514476       -1.44063426460982
H           -5.31175144952715       -2.95779873824742        0.31185382237513
H           -3.99254892067395       -0.74344429618740       -3.09246181318894
H           -5.82582979239375       -1.69347462919702       -1.74298997964209
C           -0.28591609238430       -3.87358799367543       -0.32944766537403
C            1.11706945500581       -3.98857485338125        0.00850841909187
H           -0.45249501986057       -4.23105068981840       -1.34817318026535
H           -0.88103150999478       -4.47308772245781        0.36376585390942
C            2.27310292720237       -4.01611273796175        0.31511903984482
H            3.28795563272863       -4.06818888265060        0.57338232969303
Cl          -0.40505984300488       -0.91473608786740        3.76262801922474
Cl           2.14850813659623       -0.84908076489506        1.69208917240761
O            0.59816221992128       -0.10489712879088       -1.77927200970999
O           -0.23556719033400        0.76407727369147        1.41711212112973
C            1.36532636166078        1.66626502964599       -0.59142601499062
C           -0.04700108463195        2.08623987582609       -0.52027232552894
C           -2.23039912404438        1.49199577879112        0.32905025852834
C            2.82893169995380       -0.02247744350822       -1.35141206231119
C            3.93668913172002        0.60317660903423       -0.77079065503284
C            2.42215245366892        2.33094803399881        0.00538760709321
C            3.70132222242723        1.79279392519302       -0.09904436430439
C           -0.58534860696877        3.14566304352534       -1.19013697498670
C           -1.96791326988575        3.41872269604599       -1.04990606806380
C           -2.80146705517090        2.60347804952684       -0.30647267097549
H            4.50775046758895        2.31880545185694        0.38046736068020
H           -2.35073837089734        4.28164287269800       -1.56389865823017
C           -4.28991739993445        2.88199341966639       -0.16324493828322
C           -2.90967052521869        0.55602563755501        1.10661028433761
N            1.57586450151852        0.49919712930110       -1.25316475792702
N           -0.85803793477497        1.25912071460037        0.22821977199362
C            2.85492791030750       -1.23186551545873       -2.08596725181736
C            5.31603087080933       -0.02309553779393       -0.86637378286738
C            5.26985872756846       -1.41951221235665       -0.23018804281032
C            5.73289958600015       -0.11742009627025       -2.34129603530796
C            6.37302641922397        0.80039256074729       -0.12390591785932
H            4.63045944896882       -2.08925009582539       -0.79643436736176
H            6.27089563263253       -1.84344548675118       -0.20284525180850
H            4.88590277877105       -1.35286416795380        0.78543344064616
H            6.72545592850706       -0.55484806669702       -2.41423243964702
H            5.04742782126499       -0.73813761299756       -2.91030988577575
H            5.76035613728061        0.87321741559198       -2.79195242469226
H            6.13777626788970        0.87342806501726        0.93494602742938
H            7.33734846188458        0.30695607425813       -0.21860767087793
H            6.46898646608528        1.79857543255716       -0.54545999967726
N            2.81068606193368       -2.19196069214238       -2.71104365743248
N           -3.40715514807712       -0.23041910679483        1.78981338402692
C           -5.08654179883104        1.69392041289252       -0.71764941830131
C           -4.62274049803427        3.10174582037530        1.31947972115550
C           -4.71920260050426        4.13632919577746       -0.93250726691635
H           -4.88002177491703        0.78213902179727       -0.16622164527863
H           -6.15194238504780        1.90100047138097       -0.64874316167627
H           -4.83294887808482        1.52603432774289       -1.76211089548955
H           -4.41527168609915        2.21353944603519        1.90790691381661
H           -4.03857696606798        3.92838295870070        1.72015644082678
H           -5.67766737139592        3.34195105458780        1.42822074555563
H           -4.53032179850852        4.02934961010444       -1.99803751511966
H           -5.78785856852500        4.28592729265768       -0.79685945636023
H           -4.20943898578168        5.02279294188109       -0.56218247745378
C            2.19542723218200        3.59749421388110        0.76586311743917
H            2.40602335845006        4.45952514495839        0.13294196490440
H            1.16602527371466        3.66710823088143        1.10667813409648
H            2.85908682834554        3.64092894955510        1.62565097538322
C            0.23384739878581        4.01549737306763       -2.09165710232158
H           -0.24238819258518        4.08480091583685       -3.06821534890875
H            0.29779430836850        5.02280506963509       -1.68100314701198
H            1.23851156669628        3.62338412078868       -2.22158607795973
