77
 energy: -121.056241948568 gnorm: 0.000979660481 xtb: 6.5.1 (b24c23e)
Si           0.36712933946218        1.63030122740887       -0.23917423368532
O           -1.24054995521430        1.44664064280036       -0.07431519507200
C           -2.21445074382701        2.22688412820196        0.58404830090092
C           -3.03523766781145        1.30255235338713        1.45598048933942
H           -1.69914166050167        2.95430899856208        1.22836236187425
C           -2.39755662948744        0.22961529427725        2.07195916073567
C           -4.39239476964365        1.48811165419823        1.68795952438891
C           -3.09958753233811       -0.65090697274324        2.87312439974179
H           -1.33658428007061        0.09580091796708        1.92687948572379
C           -5.09353410181706        0.61346727532911        2.50222287233751
H           -4.91805553475189        2.31537234209203        1.23874841259184
C           -4.45439027316198       -0.46429118751363        3.08978179070907
H           -2.58513236570982       -1.47911793764244        3.33958555846005
H           -6.14810184732714        0.77364930281588        2.67246446305335
H           -5.00638930279682       -1.14833022380653        3.71770361357589
C           -3.02609320725494        3.00253130965626       -0.46611114215447
C           -2.13408681469086        3.78467377159983       -1.29769712592655
H           -3.72270388091543        3.67570437017063        0.03761459018052
H           -3.58048990657908        2.30301413115799       -1.09739870172914
C           -1.35587680367905        4.40615603861535       -1.95988035454628
H           -0.68451055552247        4.94548756461772       -2.55824462068967
Cl           1.46931315005567        2.36934059634392       -1.78440584869964
Cl           0.63771822984543        3.25994691243771        1.07942312663145
O            1.18816958395045        0.60534521269009        0.88898363353265
O            0.24345729818704        0.09360443793584       -1.39505563276785
C            1.65529602963399       -1.56150688035762        0.08411703286471
C            0.21624599485946       -1.76982683034647       -0.03691418501478
C           -1.75384006512115       -1.07931439189544       -1.19637195080221
C            3.42148700418176        0.02889272794528        0.49994399423676
C            4.39533216661138       -0.89735152930538        0.13109565748534
C            2.59684525968273       -2.50536467719942       -0.27760779743416
C            3.95648315338848       -2.16519181930310       -0.24026038618919
C           -0.50954144324598       -2.75590437918923        0.61620161871393
C           -1.86599167645176       -2.89681299092855        0.32696389075089
C           -2.51167122450940       -2.09655027618103       -0.61389816607831
H            4.66046316523131       -2.91337775135960       -0.55747593634042
H           -2.41185931198769       -3.65453265759243        0.86078113727821
C           -3.95742990502351       -2.33270421487040       -1.01708941404414
C           -2.22549905985384       -0.15318381658579       -2.14913153941506
N            2.09181359218136       -0.33441059797589        0.50101588227596
N           -0.43606734513159       -0.93041551241701       -0.88630847386218
C            3.67584048506364        1.34000534888964        0.93507239434709
C            5.86704192376093       -0.51822247701943        0.11944649947644
C            6.30621622834536       -0.14376282496540        1.54261311389622
C            6.75668348981583       -1.67205283554752       -0.35710282463450
C            6.07601869237561        0.66412663264243       -0.83740550291822
H            6.13535777836887       -0.97649846965047        2.22268312458189
H            7.36769487862778        0.09051561196340        1.54702580114556
H            5.76727252490994        0.72245659078811        1.91170174829133
H            7.79276334489535       -1.34239994899570       -0.35131494920143
H            6.67918915492904       -2.53341189770660        0.30265732335422
H            6.50933442202543       -1.96939711457337       -1.37341986393819
H            5.52969004521458        1.54392066393910       -0.51407845336971
H            7.13248710318249        0.91707832039454       -0.88051279279707
H            5.74237473043311        0.40237509827710       -1.83947359246428
N            3.87179332159909        2.40009507325263        1.33559638391162
N           -2.57928484792163        0.58326245200379       -2.95614445115276
C           -4.79526002061885       -1.07130896774862       -0.77751549725947
C           -3.98716652397543       -2.71449025653961       -2.50558495592150
C           -4.59791214203513       -3.47236291796624       -0.21752971473916
H           -4.42901212557197       -0.23131738287742       -1.35737948050550
H           -5.82629946959713       -1.25836218742906       -1.06819826407200
H           -4.77599477133500       -0.80132585655190        0.27499259334699
H           -3.61497665387620       -1.90658980958652       -3.12850855812243
H           -3.37993281616282       -3.60027545384193       -2.68413061563595
H           -5.00855641748227       -2.93281415620388       -2.80708700798310
H           -4.60643996002108       -3.24650477806691        0.84629023990296
H           -5.62943080325590       -3.59244999178006       -0.53954895073731
H           -4.08580445887133       -4.41693603556115       -0.38671434641774
C            0.11362417524037       -3.62820833272821        1.66000994285037
H            0.16422390709786       -4.66071706706660        1.31676904747915
H            1.11434831878271       -3.29169861350278        1.91359903068763
H           -0.49953978949710       -3.61175069810453        2.55927863654723
C            2.21788155811004       -3.85911489626019       -0.79279502208901
H            2.79705351526558       -4.08224495430117       -1.68663480871204
H            2.44990215508811       -4.62277429754811       -0.05112876275498
H            1.16247994423908       -3.91823313302826       -1.03925475733489
