77
 energy: -121.069861657144 gnorm: 0.000963053294 xtb: 6.5.1 (b24c23e)
Si          -0.00118961464691        1.29821441912009        1.46888705343470
O            0.87585731687641        1.22999550002144        0.13266995790366
C            1.39930300319328        2.17988010339964       -0.78709025923596
C            2.42362078546903        1.47386130394679       -1.63791828734888
H            1.87590822200264        2.98254478646713       -0.20875229488198
C            2.03868905334649        0.39687827990027       -2.42678773775111
C            3.74820729270732        1.88933228816477       -1.64547500134931
C            2.97084905692144       -0.25313059977244       -3.21527098698015
H            1.00954692132063        0.07744634927980       -2.41516598788035
C            4.67796558875937        1.23997657873020       -2.44059990978931
H            4.05321951654801        2.72501723561565       -1.03140032529988
C            4.29084242805161        0.16729182630672       -3.22587153054069
H            2.66440746528545       -1.08660635469066       -3.83016775987894
H            5.70634052329075        1.57005486334762       -2.44265150192482
H            5.01746618563505       -0.33676788039917       -3.84688332583268
C            0.26881131703664        2.76365283410902       -1.64894338944695
C           -0.48169428244814        3.75688090176404       -0.91353594376455
H            0.70202388502475        3.21979262372478       -2.54230040742352
H           -0.38957637563123        1.94621187547951       -1.95724854095567
C           -1.05555281991510        4.57650022269340       -0.25681538130295
H           -1.58880482955775        5.29295077603387        0.29271252024738
Cl           0.76295863343418        2.54063462702358        2.83818035609777
Cl          -1.96352809725311        1.67806130715711        1.21947257791328
O           -1.06799655092420       -0.27674386682485       -1.78988492290651
O            0.04422233908519       -0.24773031193625        2.03144298994298
C           -1.39570179494374       -1.49811140854431        0.10881017550959
C            0.04884562301732       -1.73071408506650        0.17455540670260
C            2.03841103617020       -1.43051615910663        1.51252358643916
C           -3.18431982176118       -0.43277891404415       -1.00681254655100
C           -4.11295938315064       -0.85146964831626       -0.05204251876355
C           -2.27752022782935       -1.94907576070432        1.08832292379385
C           -3.62252723034958       -1.62440165140203        0.99245969892587
C            0.79979455118822       -2.31567461194333       -0.81322432667211
C            2.19890913595323       -2.39089170842462       -0.65863652637816
C            2.83743578341463       -1.93511136086435        0.48361681249036
H           -4.28433661434869       -1.98647105466903        1.75935406009474
H            2.76349694319624       -2.81397979891613       -1.46892505770566
C            4.34770903432623       -1.99266640972955        0.64760085415007
C            2.47964812554805       -1.00169927409971        2.76523174512756
N           -1.85950026096534       -0.73741706596868       -0.91790862914336
N            0.65338134439248       -1.34032536971178        1.35467929970791
C           -3.47540795874249        0.36273906152623       -2.14079842466163
C           -5.57444508319914       -0.45658872890862       -0.16120164372064
C           -6.15660930032265       -0.99723565117307       -1.47529099065913
C           -6.40945469106217       -1.02024047870015        0.99314216457891
C           -5.67471323461752        1.07506155746815       -0.11650601393164
H           -6.06662101234191       -2.08165951981902       -1.51136839457266
H           -7.21029173105770       -0.73822737176782       -1.54343683824319
H           -5.64984160809064       -0.57838025261777       -2.33909399153753
H           -7.44379859936864       -0.70935507517015        0.86651867283719
H           -6.38893672256023       -2.10788311512033        1.00416450009015
H           -6.06232871478474       -0.64058604129972        1.95096494200092
H           -5.19669538909572        1.53084256006584       -0.97778708536604
H           -6.71975286414134        1.37504569721524       -0.10863307255568
H           -5.19405271237800        1.45648332712555        0.78189510545847
N           -3.64993495353684        0.99723561179635       -3.08003176903394
N            2.77563794524094       -0.63676768419158        3.81950881944645
C            4.88014622504178       -0.58230285990695        0.93671782248655
C            4.69502082683453       -2.94190954074712        1.80341820641490
C            5.04379136404314       -2.50301558135623       -0.61842909317199
H            4.49930477714559       -0.19834053371300        1.87813820890605
H            5.96603119928857       -0.60437677046447        0.99475011977912
H            4.58954567231459        0.09802708104734        0.13828729135965
H            4.28735062167723       -2.58484780719862        2.74470251808730
H            4.29824138291280       -3.93678712688536        1.60793996677142
H            5.77519314087832       -3.01591583935128        1.90612851356860
H            4.82105460930842       -1.86282116193715       -1.46913673438508
H            6.11986527649052       -2.49099943952465       -0.46054290863837
H            4.75366655450074       -3.52626075358304       -0.84616554293848
C            0.15430271832816       -2.88578780395595       -2.03466317287672
H           -0.72486749924115       -3.47305672543677       -1.77216483507387
H           -0.17036609030308       -2.07606454599085       -2.69041386163803
H            0.85283313528416       -3.51601194900395       -2.57776301626918
C           -1.77976536070474       -2.78156243862022        2.22435211969520
H           -1.30957388197999       -2.14013201113209        2.96934456859458
H           -2.60172289671445       -3.31105189568767        2.69866358532034
H           -1.03528335251371       -3.49974760014478        1.88643634510164
