89
 energy: -135.463714090920 gnorm: 0.000312884337 xtb: 6.5.1 (b24c23e)
Si           0.12235990271577        1.42216406794120        0.20456899083534
O           -1.27809060019106        1.13148214923640        0.99927859193937
C           -1.54593008835603        1.18227594632481        2.39016689802696
C           -1.15267081881906       -0.16078277572085        2.96287794402107
H           -0.92065906008652        1.96369657901821        2.83777342299440
C           -2.00621200443434       -1.25538555096636        2.94474498765802
C            0.15179689117584       -0.33231604688686        3.41385904658257
C           -1.56931784480312       -2.49440470652691        3.38207538922174
H           -3.01914953661375       -1.15426602628993        2.58528558378257
C            0.59282984248351       -1.57428475451207        3.83279456830157
H            0.82232687546802        0.51356159258650        3.41713003888324
C           -0.26784542762738       -2.65930601923835        3.82078611658845
H           -2.24899128679695       -3.33463530064490        3.37356384719681
H            1.61108553685637       -1.69564492927431        4.17228153101452
H            0.07425328925397       -3.62890445853389        4.15318646186655
C           -3.02071537231049        1.54751045232473        2.59992974449789
C           -3.27195622755896        2.89602348184972        2.13504101692960
H           -3.25078533728006        1.47340297380424        3.66615294287057
H           -3.66140440245696        0.85532803521191        2.04731487029705
C           -3.44566673797573        4.00156728361811        1.71252967582060
H           -3.59829302076985        4.97808765666290        1.36249608610593
Cl           0.19154048546173        2.82837005463603       -1.29144994046953
Cl           1.05274495677841        2.72026663422540        1.64749775447627
O            1.34698155147860        0.33619325051032        0.66830139427013
O           -0.36464237316061        0.28196398780278       -1.12198664968888
C            0.98478306237643       -1.90137864488352       -0.07094078625886
C           -0.42550314636656       -1.85492464958698       -0.17838564214182
C           -2.40517228567538       -0.77292313785524       -1.02941041000256
C            3.12108214632454       -0.77729113276644       -0.28341344155996
C            3.78523377212647       -1.95432062940400       -0.53841375378461
C            1.69407585796308       -3.12243640682654       -0.11564038989162
C            3.03727343509137       -3.14895007555067       -0.32956126733096
C           -1.25180038733412       -2.92669696081771        0.21787892246165
C           -2.59805205041244       -2.89872230974010        0.01218375161837
C           -3.22917072935189       -1.82178977629613       -0.65553327962187
H            1.14185914519653       -4.04474634899496       -0.04376524126198
H            3.53752325400448       -4.10103592971018       -0.36796189849479
H           -0.80289835409525       -3.75647583665695        0.73711135814030
H           -3.18132399757497       -3.72984155239202        0.36640100476983
C           -4.72929080100889       -1.84793115471788       -0.93091856159551
C           -2.77688080911916        0.41701426804267       -1.83702591320961
N            1.78953000583039       -0.78031458099180        0.00508072092409
N           -1.07960287306018       -0.80338366277480       -0.76708875421329
C            3.68845449000669        0.58857833207757       -0.20279608780669
C            5.24079471635553       -2.07043994821240       -0.96859268055634
C            5.75646536350833       -0.81990917170184       -1.68753167621174
C            6.10051732189044       -2.33001129955428        0.27667019011475
C            5.40084076955672       -3.24907978497171       -1.94475865683401
H            5.85840759000508        0.02218505705344       -1.01238550392750
H            6.73750193344257       -1.02682470647285       -2.11029986013104
H            5.08890234425875       -0.53837944111864       -2.49794866870511
H            7.13578003090929       -2.49263227090097       -0.01381942322572
H            6.06192773239065       -1.47725986384347        0.94906965113621
H            5.74906423286397       -3.20915361827262        0.81240134034906
H            4.66931751778869       -3.18255113047026       -2.74681697277505
H            6.39425205574221       -3.22361658896849       -2.38599904384664
H            5.29168154246028       -4.21010473150633       -1.45077522337829
C            3.40045316421719        1.51316879209951       -1.20043976563179
C            4.38673918819569        0.99110371464366        0.92922860203115
C            4.54055252271400        3.21478187977053        0.04490802403350
C            4.81630261244689        2.30013367313091        1.04664233524333
C            3.83109548922357        2.82064145236271       -1.07657386013891
H            2.82380839208370        1.21074778954680       -2.06230658562844
H            3.58673875339021        3.53522022698390       -1.84692163290436
H            4.86089346694184        4.24024951829250        0.14825775022140
H            5.34940300894555        2.61026632755002        1.93281938714520
H            4.56848286791125        0.28259683507606        1.72431947645200
C           -2.55240542958682        0.35622676361046       -3.21070918409592
C           -3.22390527759011        1.60338087463947       -1.27328608576798
C           -3.27921768716414        2.62852599258951       -3.44466331887819
C           -3.47735961332055        2.70075567200396       -2.07820486113744
C           -2.81066036361690        1.45386924630521       -4.00910542573372
H           -2.17177888602144       -0.55610862353660       -3.64793177212746
H           -2.63369746230916        1.39433647651006       -5.07276244924443
H           -3.47072327593439        3.48892766669121       -4.06781101863023
H           -3.81647411320238        3.61874158443237       -1.62372074607584
H           -3.33176017924357        1.69436088641154       -0.20581024585182
C           -5.00209034324659       -1.72044656695432       -2.43644440197016
H           -4.73331746447193       -0.73779731299889       -2.80826049883992
H           -4.43841439269592       -2.46964834578782       -2.98850258925668
H           -6.06067373175306       -1.87738996951288       -2.63069384323115
C           -5.42198199630973       -0.70207871079831       -0.18064713943495
H           -6.49846745434197       -0.76683486361296       -0.32328789450368
H           -5.21745080362415       -0.77022126693360        0.88621909371090
H           -5.08908114541532        0.26470927562773       -0.54268699605882
C           -5.37302664489231       -3.16007637343227       -0.46209729443187
H           -5.28086252255967       -3.28929638131940        0.61378455524556
H           -6.43433523949471       -3.13660728766102       -0.69944033905212
H           -4.93839851781357       -4.01824883413126       -0.96945139223768
