89
 energy: -135.458440353379 gnorm: 0.000735832455 xtb: 6.5.1 (b24c23e)
Si          -0.03707347429692       -0.66451629329625        0.02555298401909
O            0.68974963958453       -2.09097075861007       -0.21134951963760
C            1.58996887546662       -2.86494000192452        0.53275391966158
C            2.77183814745267       -3.25567570945718       -0.31779768797825
H            1.94122602648472       -2.29253434164975        1.40042240465037
C            2.74193944827391       -3.11829506637669       -1.69729681171111
C            3.90473962823535       -3.78478314430312        0.28886520217932
C            3.83096193979303       -3.50234773334887       -2.46015373845951
H            1.86303451006563       -2.70236467592773       -2.16369484473283
C            4.98832553691433       -4.17674088155234       -0.47517741165592
H            3.93745643782071       -3.88249104831222        1.36497480674639
C            4.95416946895044       -4.03566248859081       -1.85304175413289
H            3.79937091102741       -3.38887056871155       -3.53407438517664
H            5.86419783674645       -4.58922001531658        0.00518151059184
H            5.80259565176883       -4.33891769690958       -2.44939936742316
C            0.84567857260230       -4.12321373989740        1.02816588203078
C           -0.19385094402780       -3.74778991100933        1.96106567620313
H            1.55581312248193       -4.79963891145337        1.50940407097854
H            0.40223114887446       -4.62383902525763        0.16340307779876
C           -1.03793688216967       -3.36746227627880        2.71850093444947
H           -1.77429863144667       -3.04473341706532        3.39089557489454
Cl           0.74592500340339       -0.32814388412659        2.01563502759271
Cl          -1.09631532634421       -1.10096025943937       -1.80755651629528
O            0.73181277164850        0.62413112753770       -0.76468057621109
O           -1.40464579425676        0.14021629810578        0.70193777685381
C           -0.42215639511111        2.60780337981498       -0.23402312565762
C           -1.72163602425714        2.09561351374829       -0.53113905811499
C           -3.48139359668940        0.45497127031693       -0.28184922857507
C            1.98451355077404        2.40072121263194        0.02519008184297
C            2.13550279775137        3.73138633705553        0.34163529862969
C           -0.27177383854905        3.97309882876255        0.07655201148668
C            0.94287475429104        4.50947524846594        0.37442809703906
C           -2.63986542203201        2.88045931771970       -1.25194297324889
C           -3.90405180365496        2.44230332002849       -1.51392953801049
C           -4.38188361827528        1.20271891624480       -1.01783247177408
H           -1.16132401846324        4.57931950279014        0.13765856438062
H            0.99150400918615        5.54674474959319        0.65774790417197
H           -2.29929258271491        3.82090046687159       -1.65432523549658
H           -4.54195380330985        3.06676396771487       -2.11263122855763
C           -5.81333420102077        0.75751710214300       -1.29857971841620
C           -3.76900107580117       -0.79500814356577        0.46535686942728
N            0.75415454689900        1.89102341339074       -0.26559809832050
N           -2.21809665727377        0.89764970905222       -0.07763350203567
C            3.05103371518008        1.37777430338411       -0.09226433268274
C            3.43526514428667        4.45209843271439        0.67679332733851
C            4.71355463048803        3.66750977354422        0.37425308368442
C            3.51326268495364        5.75409233913182       -0.14060333660900
C            3.41334395522754        4.77987127697005        2.17750495333511
H            4.74065825694765        3.34247479776976       -0.66196501543224
H            5.57184623599626        4.31385244389111        0.54898415615470
H            4.81612320891359        2.79963065345233        1.01572477073904
H            4.48063567486512        6.22523245533844        0.01561437874319
H            3.40546314604670        5.53903561367882       -1.20131654656164
H            2.75103749024214        6.47212803410831        0.14494575225163
H            3.37311000334239        3.86252959958567        2.75988856823228
H            4.31303238202059        5.32514527679647        2.45260761466067
H            2.55003795722149        5.38690113710213        2.43773011977832
C            3.54332024028515        0.73964092793513        1.03946273373275
C            3.49645776004352        0.99115197258614       -1.35092048898483
C            4.94669070739694       -0.63067367448283       -0.34480105640219
C            4.44635408503166       -0.00549635114265       -1.47366137735486
C            4.48840039325621       -0.26202728692946        0.90785156788219
H            3.17045578480200        1.01408008644002        2.01352454020035
H            4.86324771028127       -0.75948992723877        1.78962767773598
H            5.68303144234224       -1.41328505887266       -0.44422510699035
H            4.79002122929124       -0.30250820775917       -2.45303057560093
H            3.09332313640129        1.47136154161726       -2.23066924900447
C           -4.08836513411919       -0.68500660917526        1.81612870783346
C           -3.65817042065789       -2.05348306324921       -0.11169096108514
C           -4.25730302217139       -3.07115787025666        1.98111856201446
C           -3.90336712073354       -3.18429885905770        0.64821998409669
C           -4.34201961804335       -1.81863277530872        2.56608859035598
H           -4.14235656259646        0.29210863032651        2.27450552286124
H           -4.59987132856436       -1.72098636418003        3.61089443066685
H           -4.45159888812995       -3.95792172859491        2.56649997943365
H           -3.81079041188197       -4.15948267304076        0.19495498629590
H           -3.34843376211234       -2.14090188048256       -1.14047615680872
C           -6.59027714660610        0.57987794134026        0.01378743784585
H           -6.19125777861326       -0.23642815478059        0.60519067147186
H           -6.54997931936559        1.49184495336202        0.60545071450242
H           -7.63242683703431        0.36008877238490       -0.20586965708217
C           -5.80522668273786       -0.56069755192270       -2.08532858729326
H           -6.80171805360270       -0.76650790310273       -2.46961657682990
H           -5.11635706955737       -0.49618376818816       -2.92390261136047
H           -5.50665108517813       -1.39112841119283       -1.45600560726619
C           -6.57536691332016        1.79014330585557       -2.14019305160998
H           -6.11053736025248        1.92707072616868       -3.11333463537214
H           -7.58879347036896        1.43122302774797       -2.30573225571937
H           -6.64494723601671        2.74816540612367       -1.62999652978385
