89
 energy: -135.463410631713 gnorm: 0.000615756749 xtb: 6.5.1 (b24c23e)
Si           0.10089643366037       -0.95141187130574       -0.09522757717221
O            1.38561152888762       -0.65173933021012        0.87019325232264
C            1.84803773933309       -1.43522808112705        1.94533673693521
C            2.53277903613989       -2.70106131156728        1.49553063044124
H            0.99216162387812       -1.69710409653271        2.57913345206711
C            3.11262668625897       -2.79204509760890        0.23995517490936
C            2.61465774505049       -3.78262493568064        2.36274164415274
C            3.75802444616354       -3.95226809797945       -0.14902653040564
H            3.03878267255593       -1.95871113062794       -0.44135162686228
C            3.26576751178429       -4.93882269765378        1.97605384275778
H            2.14971983881762       -3.72244342991014        3.33638486418571
C            3.83964414841603       -5.02644701804870        0.71853768410756
H            4.19275757164708       -4.01494148065035       -1.13578316356881
H            3.31702363102007       -5.77860866396081        2.65412333744173
H            4.34091394323256       -5.93372515303440        0.41415119139410
C            2.83771316203900       -0.59332801502817        2.77556172281610
C            2.25411316874428        0.67213576466276        3.15974830336011
H            3.10796753071481       -1.16174854563968        3.66915479246877
H            3.74381406184691       -0.42417034228790        2.18888061966098
C            1.74439670871689        1.71415521276768        3.45295034946951
H            1.30538455412674        2.62477047230368        3.73022913983383
Cl           0.35156549167137       -1.68331217281973       -2.00480137903499
Cl          -0.43229861739579       -2.88680649327048        0.71713519359239
O           -1.36663670199551       -0.43450557758691        0.60464379431477
O            0.27941558873867        0.64513903265932       -0.89762656388714
C           -1.83816306090530        1.88795678553682        0.40157550520289
C           -0.50380018899087        2.35325840700745        0.49164607786827
C            1.77646269801672        2.30392059339314       -0.29227358903325
C           -3.42193105296725        0.17576555510119       -0.24442960798140
C           -4.46551479521532        1.07312033288168       -0.32277196904969
C           -2.92905837777880        2.78063439785105        0.47033239917321
C           -4.19015091014778        2.39160216634152        0.13492689685502
C           -0.17031987567544        3.51404794902163        1.22126264689855
C            1.07575785605057        4.05429979657703        1.15538534431183
C            2.08611939798396        3.50136151823588        0.32783817809355
H           -2.73657933452634        3.80885671303101        0.72943326606079
H           -4.98013135974022        3.11862016994442        0.19013921475726
H           -0.91979636148769        3.94916447192683        1.86216997408402
H            1.29185294463502        4.92559669469145        1.74927735503760
C            3.40311365067709        4.26090771830466        0.20570047947732
C            2.68648341437953        1.48457179225738       -1.12243305027444
N           -2.18942530150565        0.57181321030230        0.17854799518393
N            0.53216864259184        1.77228436023519       -0.19616293314979
C           -3.45914289040903       -1.27485747373386       -0.55045571799424
C           -5.84299401489932        0.71018487669872       -0.86704996664682
C           -6.51294739430499       -0.35150891147611        0.01632175282964
C           -6.77611773902469        1.92774083344816       -0.91080649398213
C           -5.71089682041238        0.18217296921928       -2.30239029929556
H           -6.51421459518054       -0.03392776996053        1.05692355069483
H           -7.54392890713300       -0.49280004499632       -0.30018712479171
H           -6.00193516430214       -1.30531155019456       -0.05804121992092
H           -7.72432862270731        1.62979891508888       -1.35265553674405
H           -6.98353299117714        2.30654086908028        0.08724016952046
H           -6.36039260634301        2.72453691035399       -1.52310244699972
H           -5.16728847258190       -0.75606608596502       -2.33049476552333
H           -6.69933424264449        0.01447081531432       -2.72404012088853
H           -5.19034692869171        0.90633734909743       -2.92567859046933
C           -2.99274654179102       -1.72151212200059       -1.78192570463639
C           -3.82753772008684       -2.19783817153560        0.42082632367750
C           -3.32904019731621       -3.99211861539445       -1.09047674423310
C           -3.76969448287698       -3.55149593735144        0.14525921841774
C           -2.93524657065357       -3.07681232355774       -2.05045125672241
H           -2.65611258229464       -1.00831528685179       -2.52022370167345
H           -2.55626525037670       -3.41227502658727       -3.00317970231490
H           -3.26798786285012       -5.04981033636834       -1.29577070662867
H           -4.04739297413730       -4.26310767971423        0.90776785138592
H           -4.13161641802159       -1.85268502244881        1.39800379089156
C            2.44978158221874        1.33639651840146       -2.48471821415731
C            3.73759017624371        0.79391769925968       -0.53396496131091
C            4.31096100327654       -0.16721936241841       -2.65435284114948
C            4.54903237079436       -0.02582809105798       -1.29769004486533
C            3.26138925560434        0.51564972991346       -3.24492606133174
H            1.62422899190480        1.85818270407317       -2.94467659195554
H            3.06485728666396        0.39844358801838       -4.29949519211579
H            4.93660393240006       -0.81689342660862       -3.24768027683407
H            5.36105165557282       -0.56359817522943       -0.82975518792003
H            3.90337714677095        0.89725420817993        0.52612828304949
C            4.14539356159926        3.99258662089462       -1.10867478966827
H            4.58034576909169        3.00076123084845       -1.13792119778142
H            3.47704652658186        4.10582257533745       -1.95867756357889
H            4.95621975116311        4.71025094436481       -1.21591044963315
C            4.30308610817835        3.88554490508801        1.39162282794211
H            5.21010374123334        4.48540816077778        1.37369361698579
H            3.78997183477370        4.05806223433237        2.33479270039366
H            4.58278693420414        2.83757547400396        1.34741428409220
C            3.13428424022575        5.77705301877833        0.25544840240561
H            2.86530342720309        6.11548615122661        1.25178385528551
H            4.03493810825365        6.31457135777676       -0.03093878196062
H            2.34067709679019        6.05043618131172       -0.43617444286054
