89
 energy: -135.365698046130 gnorm: 0.000594776323 xtb: 6.5.1 (b24c23e)
Si          -0.07680267631981       -0.81859064121124        0.24359452466160
O            1.13241448920505       -1.89707542267580       -0.51673957977633
C            2.32494837863807       -2.16178509517615       -0.21160138956577
C            2.99935695123035       -3.30226476862572       -0.72344348919430
H            2.85548431673952       -1.50587069014977        0.47406346723692
C            2.35358473736034       -4.17698017889687       -1.61932322694305
C            4.31901678196067       -3.58986966911238       -0.32881604614578
C            3.00975771271695       -5.28620382961021       -2.10102444012002
H            1.33813918226226       -3.95388480481603       -1.90679663843204
C            4.96310237013609       -4.70335962372058       -0.81809828547909
H            4.80996050860140       -2.92888835332024        0.36894326343125
C            4.31566082992485       -5.55433970269259       -1.70691740552036
H            2.50910709100238       -5.95417582343610       -2.78628753615249
H            5.97525768736481       -4.92200208737549       -0.50937086122954
H            4.82694839728617       -6.42623126754210       -2.08681435406395
C            2.31650282317159       -2.08217901374564        3.17679094997300
C            1.58458384350833       -1.20800178389250        2.55552462710962
H            3.37923892455473       -2.16973326335068        3.01140163120330
H            1.88472483371612       -2.75697671208876        3.89732285054872
C            0.83608894563059       -0.39211787456824        1.89253729232287
H            0.64675842257198        0.59449381413036        2.29599369302217
Cl          -1.14916957651198       -1.10673054370828       -1.66039457434340
Cl          -0.94275140181180       -2.62440938378240        1.09812187856561
O           -1.38163935698702        0.33524344799738        0.81988095145098
O            0.78666687356038        0.58689946535351       -0.63685743950767
C           -1.71441536383595        1.99380448459033       -0.72619564689409
C           -0.42780306295455        2.57779260990792       -0.43506258102973
C            1.93398989526510        2.48269628011983       -0.05134675149787
C           -3.45470808542238        0.45014950789032       -0.19777016741853
C           -4.34113136096328        1.05535951915138       -1.08581069914685
C           -2.56753620970898        2.60264559065245       -1.64707622297524
C           -3.83782643243670        2.12943941559661       -1.84074173326857
C           -0.34727296277854        3.96574141340752       -0.29245127748195
C            0.83731317089699        4.59325398877747       -0.02472978389730
C            2.03929157693182        3.85742580842784        0.09408598489843
H           -2.19332364420353        3.42647745594345       -2.23355052966439
H           -4.44660236945160        2.60526859220853       -2.58809500290169
H           -1.25967217780006        4.53655123133427       -0.36203453814694
H            0.83236046845582        5.66016912386852        0.09924637287675
C            3.35073456657049        4.59728049998571        0.35589796929640
C            3.07172627200759        1.53155965815183       -0.00434240286282
N           -2.19923550411918        0.92191646183701       -0.04872215367904
N            0.74503582146113        1.87754845878060       -0.32917855194970
C           -3.77061804293474       -0.67492204633608        0.70987599955441
C           -5.79536757780982        0.62270313553658       -1.25274457507438
C           -6.51797507741607        0.63813737547178        0.10176908686468
C           -6.56481966092966        1.57358752985615       -2.18168479175438
C           -5.86676783454173       -0.78065805534713       -1.87145097715487
H           -6.43560112269392        1.61958278487441        0.56477458262363
H           -7.57240898827394        0.41729469133467       -0.04674851567657
H           -6.11127649827013       -0.10211585525614        0.78129954438735
H           -7.60829314016906        1.26784502441506       -2.21029346647296
H           -6.53091681915625        2.59923417587122       -1.82077072637088
H           -6.18329386234514        1.53084178574460       -3.19874348623815
H           -5.62556755826884       -1.54217726970989       -1.13873772389613
H           -6.87280366716527       -0.96850845939738       -2.23992672899338
H           -5.17132193125691       -0.86416624758497       -2.70290169231380
C           -3.79715525590370       -1.98744468480350        0.25863488975136
C           -3.98681122192820       -0.40562637588140        2.05897581594006
C           -4.34979638337008       -2.73868887851774        2.47073235782137
C           -4.27967910423691       -1.43474490830311        2.93273411291680
C           -4.09909184727477       -3.01213003101065        1.13904824574746
H           -3.52927739119198       -2.20336142116602       -0.76300192863569
H           -4.10982080853676       -4.03037408221318        0.78313627504179
H           -4.57552788461708       -3.54202285028369        3.15587780651925
H           -4.44575439163023       -1.21810848428152        3.97780992176180
H           -3.93052170506253        0.61313437337563        2.41623025541583
C            3.60251655653321        1.04466231091881       -1.19564823548430
C            3.59726667048281        1.09777104650069        1.20618015803543
C            5.26291293573793       -0.17351773821626        0.03276939766341
C            4.70000558985852        0.25934402891900        1.22087496723053
C            4.69452356777493        0.19810643288765       -1.17512404347968
H            3.16526135637370        1.34594387588328       -2.13528700667627
H            5.10760566480939       -0.16824732079445       -2.10255449588934
H            6.13526878586509       -0.80988271485765        0.04427971466772
H            5.11569251971889       -0.05421601786955        2.16700644469937
H            3.14181308635913        1.40204819840349        2.13571771967987
C            4.45670756714574        4.14364629761666       -0.60758571527672
H            4.81287881713416        3.14656137614543       -0.37664343851746
H            4.09741130923208        4.15752868446088       -1.63399460338453
H            5.30283801173327        4.82298547517622       -0.53401798436236
C            3.79854268010503        4.36978444215469        1.80703335023929
H            4.62811299871333        5.03272265066105        2.04205217521193
H            2.98327432113068        4.58263637205662        2.49544648595973
H            4.12939944002562        3.34835601709485        1.95886634460861
C            3.18593997187050        6.11238858358452        0.15919983643058
H            2.53412948658889        6.54775108397631        0.91242692967905
H            4.15820270532553        6.58939836453951        0.25938735471815
H            2.80188004503607        6.34240502976327       -0.83181578482401
