89
 energy: -135.461711224044 gnorm: 0.000653686763 xtb: 6.5.1 (b24c23e)
Si          -0.21985024325871        1.18103179017126        0.62939680651228
O            1.24652159769897        1.42998729990423       -0.04399004143315
C            1.75813216687256        2.57110741172403       -0.69076019898137
C            2.30843377166108        2.19839622343606       -2.04329469981548
H            0.95031929096609        3.30094699173846       -0.81339367632736
C            2.79563457768702        0.92316690137221       -2.29098226199148
C            2.35559219801799        3.14761446715573       -3.05735143999590
C            3.31267196404720        0.59614695228399       -3.53187860947310
H            2.75577992146394        0.18327267565748       -1.50733160878727
C            2.88292000985688        2.82443222448721       -4.29416560656633
H            1.96951932939238        4.13989980069416       -2.87390287602551
C            3.36138209140897        1.54683732882845       -4.53592014735038
H            3.67880394560956       -0.40451735404964       -3.71300407352895
H            2.91495847792907        3.56934995886076       -5.07581202807119
H            3.76657655535289        1.29384067669035       -5.50479737397578
C            2.86485720207702        3.22826547186334        0.16198932294127
C            2.38525331781323        3.48504973834176        1.50243829903911
H            3.15711675691235        4.16538940284125       -0.31875923261118
H            3.73647666240250        2.57077026297431        0.20422638412686
C            1.95049172549774        3.64517553632927        2.60525043638026
H            1.55724562551998        3.79056137305231        3.56609044533195
Cl          -0.51205995987029        1.28009978845215        2.66322944044410
Cl          -1.09095758015344        3.12522535460752        0.28686107352201
O           -1.35750410365283        0.66428807897226       -0.53398759972325
O            0.18895148161548       -0.53932150161391        0.97559325749731
C           -1.17522423951811       -1.61409293296793       -1.19463973716185
C            0.22274334257624       -1.75402716337777       -1.02114947633107
C            2.16922786595364       -1.58296497861338        0.39428301300384
C           -3.27846948338948       -0.60575075161490       -0.54291237393044
C           -4.01130319505288       -1.65374397723218       -1.05028960737319
C           -1.92781189659815       -2.59539897676433       -1.87752160469283
C           -3.28649020372884       -2.60911001103993       -1.81879596804516
C            1.02257944151940       -2.46456949930284       -1.94235353803903
C            2.32056899708224       -2.76106987257256       -1.66621506019520
C            2.92291925021165       -2.39643004024122       -0.43422813495942
H           -1.40164841798417       -3.37877931219904       -2.39782593416307
H           -3.81993958828319       -3.37976459321763       -2.34814222403285
H            0.59132735737108       -2.74153455694449       -2.89000640137108
H            2.90015928619123       -3.28127112435809       -2.40932897603786
C            4.32687810069578       -2.91713573241231       -0.14668348647087
C            2.62511109367122       -0.93385164677416        1.64286784547951
N           -1.92238119301915       -0.57431557140992       -0.67969644010835
N            0.87942404605517       -1.28831304971548        0.09132978184867
C           -3.79121505330139        0.61534316455137        0.12017494978586
C           -5.51591044247293       -1.84224729461364       -0.91424295520234
C           -6.14381869367441       -1.04412826537738        0.23157795992586
C           -6.17140931870568       -1.41555978351244       -2.23594832693834
C           -5.82387470164819       -3.32585083326764       -0.64571187855446
H           -6.13380299173365        0.02230118542534        0.03604742855494
H           -7.18139057453811       -1.35002420112486        0.35098438267677
H           -5.62424992032429       -1.23293192718682        1.16711719360824
H           -7.24481523876565       -1.58308948829608       -2.19030937014420
H           -5.99543610327365       -0.35860009907432       -2.41957434502041
H           -5.76861509205795       -1.98162286575568       -3.07270562470267
H           -5.25216586141014       -3.68203078054581        0.20814135100278
H           -6.88132123583751       -3.44318218331142       -0.42171188753315
H           -5.60127799304082       -3.95763311393348       -1.50015101138228
C           -3.65681795635818        0.76260809197446        1.49525540477057
C           -4.29506064004437        1.66333710317820       -0.64091352163142
C           -4.56118157849817        2.97763158069543        1.34672052832348
C           -4.68337080451877        2.83846884759817       -0.02515994396949
C           -4.04645538388028        1.94063547338338        2.10480255090944
H           -3.23059356885221       -0.03699398701282        2.08308790019907
H           -3.92080946265785        2.05243620566417        3.17031846914957
H           -4.84862712962042        3.90310547175533        1.82184081622290
H           -5.06322581376281        3.65416115237794       -0.62177362390378
H           -4.36009998972550        1.55993785827602       -1.71447680155569
C            2.07204192715674       -1.29090703071965        2.86694469273685
C            3.54349287660038        0.10683258837672        1.58501362809654
C            3.35443429108670        0.41991912891462        3.95242964735094
C            3.90675542901912        0.78065103555529        2.73598457501791
C            2.44094975046766       -0.61799198970319        4.01610020615226
H            1.34683433039939       -2.08935395823573        2.91453261767341
H            2.00078584346694       -0.89550065015732        4.96156008374322
H            3.63065856019173        0.95396962268786        4.84882805338687
H            4.61310076426528        1.59549074314648        2.68258543010008
H            3.96152341459652        0.38946337286554        0.63087037311929
C            4.68012541992311       -2.94901207727548        1.34429134138138
H            4.84112438703241       -1.95640566519443        1.74849214621125
H            3.89465618088008       -3.43565898407641        1.91698732648704
H            5.59998874883613       -3.51388724594328        1.48163759180451
C            5.34636655014433       -2.04570872668196       -0.89432377654675
H            6.34795125624970       -2.44691497271961       -0.75812653756374
H            5.12691716551124       -2.01987150892880       -1.95929227874252
H            5.33254231457360       -1.02662505740777       -0.51809326992153
C            4.44389475239168       -4.36612767691383       -0.65635916900572
H            4.45310134515551       -4.42485132264732       -1.74057286696978
H            5.37581928205116       -4.80120700193626       -0.30371203901288
H            3.62162861201206       -4.97076499897185       -0.28056508866961
