89
 energy: -135.444050816252 gnorm: 0.000606717083 xtb: 6.5.1 (b24c23e)
Si           0.17314021141351        0.89754681291880        0.07389618912521
O           -1.07641895958011        1.85542236524318       -0.38916661739226
C           -2.30073374305502        2.19942217852278        0.19262118793595
C           -2.72128879861639        3.54992801787314       -0.33727650809158
H           -3.02968031123927        1.43588857130986       -0.10419161832133
C           -1.78166225159925        4.56600722425537       -0.44969162125685
C           -4.04202139817558        3.80207281067794       -0.67875947652064
C           -2.15888154921006        5.81581370016013       -0.90617945078224
H           -0.75549601212278        4.36045973937633       -0.18532642415677
C           -4.41973431023398        5.05499732945319       -1.12933688841488
H           -4.77396146339050        3.01149052757838       -0.59196633071606
C           -3.47861252324990        6.06370858963895       -1.24491427890064
H           -1.42145661337553        6.60003854129523       -0.99556988452267
H           -5.45039113359115        5.24388329225525       -1.39392384920169
H           -3.77364155031161        7.04047776460306       -1.60009021107093
C           -2.28593588339932        2.28737381980120        1.73461778815805
C           -1.92035924225865        1.04579707812813        2.37449499588334
H           -3.28754847420339        2.58652257100853        2.05689326296784
H           -1.56884971955521        3.05515182468256        2.03457177943211
C           -1.59558906071130        0.02772377265510        2.91499164819550
H           -1.29463273413040       -0.85996121088431        3.38694005165519
Cl           1.10616246658282        1.06306389253756       -1.75847268747498
Cl           0.87668816065358        2.27049737085314        1.53368129785396
O            1.42434933810079       -0.13562059402700        0.83063880225955
O           -0.85647438249243       -0.48084602852130       -0.15755278723415
C            1.64708935501989       -2.14342888992903       -0.32361345949638
C            0.33333948708231       -2.58327970914187       -0.00280231623647
C           -2.06967213432361       -2.39847897961360        0.12704945309819
C            3.48381536035361       -0.59960645279998       -0.09771309941642
C            4.35808140201246       -1.42384194143922       -0.78665458833668
C            2.51857146309673       -2.98562710338514       -1.04419022941010
C            3.81212226512831       -2.63179250013594       -1.28390750810597
C            0.15863619656142       -3.96284029625195        0.24740044736428
C           -1.06110380374026       -4.52511041050082        0.44302517520009
C           -2.24987774581399       -3.75352849571906        0.30444908569189
H            2.12275915479906       -3.89782855026375       -1.45998133923206
H            4.41702145412785       -3.29578293114767       -1.87472598417052
H            1.04643440903053       -4.56832024059328        0.33352634336737
H           -1.11314760200358       -5.56966662439269        0.68848636863699
C           -3.60072875600434       -4.46659308301040        0.36298683902945
C           -3.17900688666660       -1.43787201345518       -0.08865122020700
N            2.19903301804434       -0.97190540077928        0.11145459033281
N           -0.82504931118165       -1.82892713895562        0.05060579125293
C            3.81703180095984        0.69222066174934        0.55028030270492
C            5.83009870060158       -1.09219497384957       -1.00990946233227
C            6.53645992293418       -0.87333942004330        0.33574829029777
C            6.56658322508858       -2.23279848753887       -1.72636333275345
C            5.96917622867636        0.16310980317069       -1.88251634492008
H            6.40374236813380       -1.74092641855608        0.97901152636314
H            7.60165157498414       -0.72961439652784        0.16990473812054
H            6.15368076361843        0.00198624525082        0.84874955994895
H            7.61782424601838       -1.96925549429308       -1.81962913659115
H            6.50755092911902       -3.16140178081685       -1.16314845141257
H            6.17668796349296       -2.38865911165381       -2.72920783449972
H            5.70094895711521        1.05593568533574       -1.32933611463729
H            6.99952308614675        0.26632153714535       -2.21561943494907
H            5.32827503713397        0.08949714865247       -2.75789248083268
C            3.82025074674453        1.88367473835588       -0.16356746709743
C            4.04186832600671        0.71430442982693        1.92374967372196
C            4.32767609168263        3.09283314581416        1.84858157710533
C            4.30252262550909        1.90952970805057        2.56653916870174
C            4.08006298922980        3.07699409339962        0.48793220590968
H            3.57608581325017        1.87652165633571       -1.21396706182865
H            4.07096875641806        3.99934889870653       -0.07274678251939
H            4.51929834272009        4.02719434868412        2.35398404764179
H            4.47178715152750        1.91723196380539        3.63288698195505
H            4.00646251128214       -0.20888255309764        2.48450790092144
C           -3.44126835847203       -1.01118339797384       -1.38836596482809
C           -3.96959785898268       -0.97306786024934        0.95398369299259
C           -5.34299962887019        0.22545775674015       -0.60909702841419
C           -5.05261280550448       -0.15077663379007        0.69117333418868
C           -4.52116034880913       -0.18815240486751       -1.64600261918088
H           -2.80352378965547       -1.33763190637642       -2.19579888052841
H           -4.72259008880305        0.13147761593909       -2.65714111823557
H           -6.19984618842466        0.85034579476113       -0.81421793018662
H           -5.66856034569606        0.19628784685597        1.50752763997079
H           -3.73206068837964       -1.23853467152828        1.97168516658048
C           -4.58547190320095       -3.95096205709495       -0.69612194262294
H           -4.98599417172888       -2.97686117019194       -0.44268260856220
H           -4.10383102475479       -3.88963339587958       -1.66896005111206
H           -5.42394483854580       -4.63950800922499       -0.77550900032186
C           -4.20922197791726       -4.29869866404809        1.76268521656886
H           -5.10532865684038       -4.90901615882473        1.84951617700445
H           -3.50134249882131       -4.61539840539175        2.52599599727076
H           -4.48264603024614       -3.26538831642142        1.94685752705342
C           -3.43337936844562       -5.97419999276421        0.10672668037230
H           -2.93159071528234       -6.47342731321807        0.93140419083226
H           -4.41570415333969       -6.43033488508184        0.00815775021824
H           -2.88315410545442       -6.15606839913161       -0.81340701684530
