89
 energy: -135.458394028850 gnorm: 0.000420810463 xtb: 6.5.1 (b24c23e)
Si           0.00008816347805       -0.65816922022230       -0.01030696366436
O            0.74601096022524       -2.07978390509452       -0.20312709780791
C            1.64317746341878       -2.82780139912657        0.57062971666101
C            2.82809233826113       -3.24532168465345       -0.26236202887689
H            1.99171799189280       -2.22640551773099        1.41945194171608
C            2.78657071338822       -3.19422888540744       -1.64752614581270
C            3.97605879307210       -3.71073029633136        0.36763048868714
C            3.87944522936334       -3.60052453644917       -2.39324369890675
H            1.89598024067480       -2.82690223906604       -2.13247778798383
C            5.06382488046205       -4.12451933019996       -0.37867167616223
H            4.01590548144834       -3.74220824978856        1.44749447043728
C            5.01814045360410       -4.06977953556234       -1.76240955330007
H            3.83874671498058       -3.55433611161968       -3.47180128490629
H            5.95188882138267       -4.48657855825000        0.11955340907388
H            5.86987256817624       -4.39018418189224       -2.34498054362278
C            0.89591530111160       -4.06762439280888        1.10646959100968
C           -0.12720183763225       -3.65963898567794        2.04384355882562
H            1.60732512273906       -4.73799604156637        1.59450541893815
H            0.43665719200651       -4.58498216754928        0.25989476655126
C           -0.95423491501492       -3.24834808186276        2.80405924416477
H           -1.68026125730855       -2.90381895137899        3.47688368655967
Cl           0.83829279312503       -0.22088305537231        1.94936041720794
Cl          -1.03887815895243       -1.14603796410939       -1.83889632728518
O            0.68449299506872        0.65665391393436       -0.83173172774189
O           -1.39419768396405        0.06780382830068        0.68815519721954
C           -0.48987706120511        2.59249265019889       -0.21058335927154
C           -1.78111444206169        2.04910816930098       -0.49107392365387
C           -3.48678672106680        0.34668519307784       -0.26963004764795
C            1.93051062614858        2.44706206645033       -0.05282987344256
C            2.05675980118844        3.77387434173059        0.29272742471044
C           -0.36691188512101        3.94919359423136        0.14465779920462
C            0.84460478761609        4.51176718082941        0.40756711748391
C           -2.73854623553993        2.83153595928369       -1.16180009711387
C           -3.99207377085509        2.36254199694249       -1.42191853056487
C           -4.41979357496608        1.08758305289636       -0.97100809945287
H           -1.27009687632208        4.52506655104139        0.26781850593495
H            0.87538721890983        5.53863303374438        0.72808443925110
H           -2.43666458106784        3.79926511891360       -1.52895049484719
H           -4.66156715042572        2.98996568473052       -1.98180800489872
C           -5.84040628588729        0.60623100804264       -1.24701113950817
C           -3.73139613292064       -0.92838454772633        0.45075440168228
N            0.70404486539484        1.91379426862379       -0.31058775786366
N           -2.23362763031779        0.82046709531011       -0.07011807307519
C            3.01561343611770        1.45231126230971       -0.22576933152924
C            3.35396852842117        4.51589116089986        0.58935818204542
C            4.62331043871112        3.80955818880965        0.10643612140386
C            3.32532459807036        5.89107682872417       -0.10215750922307
C            3.44419054438190        4.70579921612880        2.11088165772705
H            4.55342336935613        3.55548450212797       -0.94769635628833
H            5.47174270192161        4.47842341099831        0.23852841913067
H            4.82398565353145        2.90636880999163        0.67095623639360
H            4.29775684882980        6.36755977497617       -0.00492608064134
H            3.10556360976069        5.77713850455603       -1.16125239568224
H            2.59194555844127        6.56203734765792        0.33405719105961
H            3.48312345548779        3.73989769827947        2.60823742479826
H            4.34298260397382        5.26287014496711        2.36452048003807
H            2.58210645404885        5.24962620752186        2.48931281234791
C            3.58723105520665        0.83735839390847        0.88175223226190
C            3.39350176413698        1.05816089443984       -1.50407825117410
C            4.92236101522440       -0.53357994955641       -0.56790813992590
C            4.34836622453045        0.07272924888020       -1.67171221095687
C            4.53714331542503       -0.15274647034431        0.70563553575205
H            3.26899016338509        1.11863767106162        1.87301469541552
H            4.97179967808424       -0.63362371724100        1.56898001748824
H            5.65911062141119       -1.31085539929272       -0.70154514784696
H            4.63679728203477       -0.23154135249176       -2.66655242421126
H            2.93206946908976        1.52108563339733       -2.36415194556810
C           -4.06833968926903       -0.85631942060037        1.79956262821372
C           -3.56828213693049       -2.17072596598068       -0.14864143338168
C           -4.14324875414877       -3.25046570676673        1.91973589525332
C           -3.77410026025649       -3.32430971212278        0.58827711455171
C           -4.28455911759666       -2.01329377967969        2.52572405119843
H           -4.16270151673798        0.10910223399028        2.27619204670826
H           -4.55820839872679       -1.94563319187182        3.56898060492237
H           -4.30611988797235       -4.15453368611230        2.48772954911615
H           -3.64048027184637       -4.28613671114427        0.11704019041926
H           -3.25208514060739       -2.22666632007355       -1.17762251114771
C           -6.61222198709763        0.44844817310038        0.07127232157559
H           -6.19417936016110       -0.34375717711937        0.68326155674710
H           -6.58913853519687        1.37715310687774        0.63805649046068
H           -7.65009246242358        0.20197603507924       -0.14056011529225
C           -5.81127897507584       -0.73077274476252       -2.00023818282558
H           -6.80578437699650       -0.96357610116559       -2.37420659235619
H           -5.12799440849983       -0.67465916551114       -2.84394540195528
H           -5.49622882258553       -1.54126898265822       -1.35326156919883
C           -6.61870326556097        1.60281839594536       -2.11686330244765
H           -6.13186074112353        1.75072397522231       -3.07762005538975
H           -7.61257812011015        1.20353685871515       -2.30646261848860
H           -6.74084147714259        2.56114200778434       -1.61733923741031
