89
 energy: -135.461699422044 gnorm: 0.000794647906 xtb: 6.5.1 (b24c23e)
Si          -0.04475079930347        1.16178010772559       -0.63536556649525
O           -1.39380358433595        1.39357950064205        0.25422186103168
C           -1.68557820813875        2.02754823785473        1.48926666294548
C           -0.68055029176800        1.58509177437170        2.52577864051509
H           -2.66992657313968        1.61428711093678        1.76574615814323
C           -0.89344841790490        0.36622200170457        3.15973716282220
C            0.48817149001199        2.28604567940432        2.79120220109939
C            0.05325711560084       -0.16077381825179        4.01891538530847
H           -1.80975744727223       -0.17696617632122        2.97085439027240
C            1.43624409901395        1.75570222978507        3.64913825099047
H            0.67898486453310        3.22959916830825        2.30858356367266
C            1.22857732976392        0.53006196388780        4.25739624071365
H           -0.12647852297233       -1.11184010131256        4.49998756561290
H            2.34765212748789        2.30413221259419        3.83608996109179
H            1.97595449361643        0.11557433157472        4.91871115412826
C           -1.82879273718412        3.54774439176627        1.33732459873655
C           -3.03708692695876        3.86349969823837        0.60728293209599
H           -1.87203326883543        3.99942361125309        2.33185078613044
H           -0.96771607597193        3.94081129216410        0.79434114647762
C           -4.05346370439590        4.06797732334920        0.00902634963803
H           -4.93808682170677        4.28702566332681       -0.51055600917597
Cl          -0.10552319301374        1.48413666217412       -2.67222186361630
Cl           0.99373781974406        3.01760619851247       -0.30064267369714
O            1.19076515962245        0.48001700489034        0.32497176110004
O           -0.58709359106114       -0.50766237013195       -1.09280868169927
C            0.92474312314313       -1.84410124777326        0.79170781242619
C           -0.49064444668462       -1.87032848264838        0.79747105673857
C           -2.58434305429372       -1.29805714661187       -0.25837665700063
C            2.99649171617591       -0.89744552297810       -0.02833435676487
C            3.70808860378784       -2.04603249529891        0.24137326875089
C            1.68443005055023       -2.94495900605596        1.24279573107195
C            3.01705820609151       -3.04450804564078        0.98338994980758
C           -1.23193870343574       -2.62608346113545        1.72932307655447
C           -2.59235797026152       -2.67821729972693        1.67750370283525
C           -3.32749936652341       -2.02445184534351        0.65781662125023
H            1.17346290880077       -3.75312129794819        1.73975738303644
H            3.54337009794566       -3.91551400640344        1.33051505579986
H           -0.70295983943904       -3.12285452862133        2.52538710156060
H           -3.10709093617028       -3.24031998730044        2.43641387613574
C           -4.84806852308345       -2.13087329474539        0.60878171188207
C           -3.07981489054960       -0.63655966230466       -1.49188399545533
N            1.67870181445025       -0.79788793528923        0.29528030652010
N           -1.23670857682751       -1.23295100583578       -0.16106680885077
C            3.51155651625717        0.36516393425477       -0.61130014514091
C            5.14852722759145       -2.26618515753999       -0.20560328617983
C            6.10090158337966       -1.37257424748676        0.60096485421194
C            5.58271017956481       -3.72399111202332        0.00091752950521
C            5.29295347866596       -1.95635615975770       -1.70194123158401
H            5.95227859535151       -1.52419153185029        1.66810639877322
H            7.13131421807198       -1.62229246232840        0.35825446001990
H            5.94103750426014       -0.32433147785996        0.37041014843236
H            6.57109209888675       -3.86448263862578       -0.43071848894077
H            5.64889431384998       -3.97758024293726        1.05609522891804
H            4.89985705476344       -4.41076493326857       -0.49389471197305
H            5.15782291286616       -0.89969506317320       -1.90480550865139
H            6.28676910190211       -2.23980136879425       -2.04095850468056
H            4.56121895916756       -2.51858076427194       -2.27805638844765
C            3.25229520236202        0.67231828075421       -1.94287022022962
C            4.12385755281263        1.30821660088126        0.20530216899249
C            4.27850582839407        2.81973113636919       -1.65071363653060
C            4.51416334165713        2.52724734026066       -0.31883111729118
C            3.64110275423943        1.89451754226371       -2.45941193046546
H            2.73059400476108       -0.03908197331110       -2.56634687373186
H            3.41965494867557        2.12980950169590       -3.48874130775857
H            4.56696784624888        3.77919874818277       -2.05163635177938
H            4.98247409441887        3.25851845809875        0.32254144550826
H            4.26098686568464        1.09551648873187        1.25564204587356
C           -2.93265484071329       -1.33454879711918       -2.68919460249720
C           -3.56552148211424        0.66308951517447       -1.51729394484648
C           -3.79372889825568        0.54092311449505       -3.90630451953258
C           -3.92104866099831        1.24412841122976       -2.72279549474020
C           -3.29691699545283       -0.75165807696005       -3.88696624767681
H           -2.52829901226482       -2.33669575892569       -2.67340327205448
H           -3.17771438082705       -1.30259712753536       -4.80789399110792
H           -4.06294866180588        1.00267926078325       -4.84412592026799
H           -4.27979678074717        2.26179824120488       -2.73115372126343
H           -3.62446276063837        1.24517423029017       -0.61209002702765
C           -5.31936345116002       -2.63103716993317       -0.76379116331086
H           -5.13036319236716       -1.90071553175659       -1.54254680796472
H           -4.81307600469583       -3.55806164133246       -1.02440007203782
H           -6.38956684424231       -2.82271301052959       -0.73417801019059
C           -5.46826764711441       -0.75734317697979        0.90220803429253
H           -6.54904968998317       -0.85072139608133        0.98225557263599
H           -5.08842053569228       -0.36062061862999        1.84184352700822
H           -5.24542889202384       -0.05137268563525        0.11001518735078
C           -5.38529750803837       -3.11520454486814        1.65711219473766
H           -5.18172921281030       -2.77379930921253        2.66928860696932
H           -6.46504893655988       -3.19071646574948        1.54947658896759
H           -4.96692934443232       -4.10942278698364        1.51742969156960
