89
 energy: -135.462421222454 gnorm: 0.000511233437 xtb: 6.5.1 (b24c23e)
Si           0.00663055809588        0.64065659789270       -0.69732590469430
O            0.03357980782811        1.59848873689599        0.61007935676857
C           -0.35378266387818        2.93946550596772        0.77023876616637
C            0.45882326241347        3.88650171375525       -0.07466305545246
H           -1.41352127223082        3.03764731950130        0.50324848230394
C            1.80721249188582        3.64575377116829       -0.28925931727201
C           -0.12578537037656        5.02301489370260       -0.61557713147394
C            2.56042807222910        4.52195305725811       -1.04926306088938
H            2.25616628895628        2.75686208020161        0.12634539117640
C            0.63012471282421        5.90349376641526       -1.36740923752174
H           -1.17901205004436        5.20628117821614       -0.46000969672170
C            1.97441650126684        5.65420012510316       -1.58725111617965
H            3.60653744744390        4.31735646603278       -1.22384872259982
H            0.16672774786813        6.78206080969471       -1.79199397636984
H            2.56143145823445        6.33822145788561       -2.18272031039851
C           -0.14705039313239        3.29121869155402        2.25715108121936
C           -1.03637898495571        2.54674611404910        3.12004399100650
H           -0.31529828375517        4.36303844663007        2.39379376042744
H            0.88854719859097        3.05573993486173        2.51612899127008
C           -1.78346157123652        1.93888947839366        3.83086533187285
H           -2.43221694018589        1.40201874321982        4.45675938512043
Cl           1.63015716168530        0.45415313960088       -1.97614911271942
Cl          -1.03760392016397        2.00894058111851       -2.01604754569465
O            0.65440395158550       -0.58497062631858        0.46020061952140
O           -1.20987788320866       -0.44546079250924       -1.16515999505837
C            0.55917567487678       -2.69773830628509       -0.51476531337732
C           -0.85647547188762       -2.70249538687288       -0.47890566488370
C           -2.95285578571162       -1.54232790982499       -0.14294739694636
C            2.64907214902297       -1.72247241443730        0.19065603317324
C            3.37400441086134       -2.83438510904548       -0.20066285277754
C            1.29852595364985       -3.78393212645967       -1.02683933445039
C            2.65109066030102       -3.83758485446448       -0.89457161378466
C           -1.57637943348064       -3.90848112147334       -0.33767401593426
C           -2.90314007454593       -3.91408176807925       -0.03266011368523
C           -3.62731742363630       -2.70438652593459        0.16377004214263
H            0.77275451443537       -4.55600136328085       -1.56390732202243
H            3.17697590867988       -4.66811505240981       -1.33178353923944
H           -1.03647413486574       -4.83867547204250       -0.40652223732084
H           -3.39731868880947       -4.86163172576435        0.08407106619592
C           -5.06205815267981       -2.73116022168201        0.67922876516971
C           -3.50955194507590       -0.16757400496333       -0.19023957680018
N            1.30319866084817       -1.68004875977842        0.02601972411859
N           -1.64179253470124       -1.56708035504349       -0.50550584981772
C            3.18683233164299       -0.50836320746750        0.84594074335094
C            4.86496073462647       -3.05578127941700        0.03138114746641
C            5.39972459945502       -2.33992380979744        1.27733860639128
C            5.14451124864072       -4.55694846559206        0.23309261708945
C            5.63314585177179       -2.57721962493067       -1.20838238811089
H            4.76921966662541       -2.54382743733583        2.13935317099428
H            6.40224751453457       -2.70151254852544        1.49658694942888
H            5.46172375234919       -1.26768172856416        1.13639665903593
H            6.16248493284763       -4.69085932996100        0.59083298091906
H            4.46632719000079       -4.98001974155713        0.97066552927392
H            5.05536556553717       -5.11983252398157       -0.69134466082949
H            5.51441051882273       -1.50692057796171       -1.34480212400211
H            6.69238809948211       -2.79687132532513       -1.09596414953433
H            5.26715128376244       -3.07760983863607       -2.10193909324049
C            3.96729435393227        0.39923539777895        0.13877487415605
C            2.85340938393452       -0.23939375608301        2.16905109868106
C            4.10543663375546        1.80425255012414        2.08208712040470
C            3.31270407681436        0.91117048135410        2.78277804497528
C            4.42852425961549        1.54639351249385        0.75997656627731
H            4.18251623062882        0.22035830521716       -0.90220053210324
H            5.03379771425645        2.24706013081509        0.20424863748379
H            4.45941937843152        2.70654222395481        2.55906397045733
H            3.04461491985457        1.11327036210076        3.80946146850154
H            2.22951966527623       -0.93108089240167        2.71490824082801
C           -4.12768692474999        0.29721686851093       -1.34530805733204
C           -3.30324934898589        0.70037830581784        0.87530515490834
C           -4.40354999934842        2.45524217323598       -0.33645453959868
C           -3.76602131755785        2.00274618052550        0.80607763922487
C           -4.57271256621615        1.60453919028288       -1.41500925788476
H           -4.23256361960311       -0.35927508019846       -2.19624156736714
H           -5.03895987007403        1.96239828129394       -2.32009987035687
H           -4.74947119314032        3.47643079228666       -0.39472761430745
H           -3.61234553422568        2.66211406787712        1.64795511426163
H           -2.76687090188721        0.36525714464462        1.75090709670079
C           -6.03342777682913       -2.23839029501027       -0.40241079925142
H           -5.89254213013754       -1.18211023053139       -0.60612409220565
H           -5.88768616856696       -2.79570747868074       -1.32529889781599
H           -7.05829484008528       -2.38749065788146       -0.06986994630557
C           -5.18522034155372       -1.84783747445737        1.92866359865167
H           -6.17905471764962       -1.95520283428823        2.35750492774473
H           -4.45435916408364       -2.14821099359369        2.67664515944827
H           -5.03156628378040       -0.80078871668175        1.69100528636261
C           -5.49352916677339       -4.14866199747638        1.07916436730061
H           -4.82372742009376       -4.56971215919734        1.82536265781988
H           -6.49062363022505       -4.10607417439935        1.51170908294774
H           -5.53855860605716       -4.81046150083204        0.21766430556800
