89
 energy: -135.457754494442 gnorm: 0.000782735104 xtb: 6.5.1 (b24c23e)
Si          -0.26235645035959        0.51270421782357        0.46420105612231
O           -0.48650722741053        1.94160712837261        1.20183178870972
C           -0.26619171301841        3.25228783799468        0.74844026124104
C           -1.32106239376477        3.69290909224036       -0.23429160113207
H            0.72458507223726        3.30893585417709        0.28066380085686
C           -2.60471281522620        3.17130936756494       -0.16989068379664
C           -1.02339208404298        4.65456993795634       -1.19056970792045
C           -3.57635075625443        3.59944992624018       -1.05638763060786
H           -2.83274787900003        2.41396124531321        0.56605085330109
C           -1.99653243322897        5.08480852994632       -2.07334536882936
H           -0.02117165279685        5.05460332476932       -1.24819583925858
C           -3.27570864035092        4.55785494535809       -2.00805566044913
H           -4.57005276110405        3.18051295227890       -1.00252135714940
H           -1.75563100036147        5.82963684164320       -2.81806784487306
H           -4.03482357036449        4.89138840601926       -2.70068610599671
C           -0.30338804097831        4.17695395629251        1.98047527140312
C            0.78254609476618        3.88462909068262        2.88926039610387
H           -0.23982200680077        5.21568742988123        1.64514528154121
H           -1.25583818192216        4.02513950723781        2.49471595055087
C            1.68512693126879        3.62041646738116        3.62860704308453
H            2.46354709031516        3.40090515953851        4.29558883762612
Cl          -1.09821561131325       -0.34145949130991        2.25985276278485
Cl           0.14924672960474        1.35322999736682       -1.49057680280919
O           -0.92821707641159       -0.74148550132334       -0.51726934591680
O            1.26058678318769       -0.14280833830425        0.81761117480564
C            0.11926147926550       -2.72381702127902        0.11267672712315
C            1.41656580449395       -2.25345522766155       -0.25028630810998
C            3.16504504442910       -0.58108218929978       -0.40302711526446
C           -2.28573775818040       -2.47996710892356        0.19704485965689
C           -2.47530233575320       -3.77511134427543        0.64123131034129
C           -0.06086726501383       -4.04446114082917        0.56412796599737
C           -1.29926392951650       -4.54153047364331        0.84294228390593
C            2.31575817023219       -3.14228289898176       -0.87161408113614
C            3.55291799800704       -2.75141043060916       -1.28649683368762
C            4.02337600283640       -1.42712210677305       -1.07501614917582
H            0.81516719833274       -4.64533838916574        0.74739354486640
H           -1.36769165641970       -5.54240541514684        1.22903204383456
H            1.97361779692580       -4.14388147323646       -1.07644719057119
H            4.17170626396968       -3.47165739431496       -1.78975388439221
C            5.41402980382346       -1.01590451881706       -1.54917142570233
C            3.46997389612529        0.79399785318859        0.06679524758397
N           -1.04037950705055       -2.00687180811208       -0.04200035017534
N            1.92802757158156       -0.99278849319193       -0.01382248507651
C           -3.33789937801385       -1.50080074151567       -0.17229845461492
C           -3.85002075029737       -4.38461248804848        0.89506189759277
C           -4.59215627267829       -3.59454883015797        1.98239935562572
C           -4.67190663516926       -4.38904620534533       -0.40211230009162
C           -3.74774861851193       -5.83903925026341        1.37407232211865
H           -4.95570143484810       -2.64759560381767        1.59992458116505
H           -5.44674511039570       -4.16761794423158        2.33519791258597
H           -3.93357135286761       -3.39998894927996        2.82517820073212
H           -5.62355683993710       -4.88649604488742       -0.22966923878247
H           -4.87477710620554       -3.38114740207198       -0.74801660020704
H           -4.14095135005776       -4.92628489766841       -1.18545716639401
H           -3.22470865595962       -5.90523102882301        2.32481899842491
H           -4.75102773637889       -6.23327643637894        1.52005940313035
H           -3.25122038076400       -6.46822205560138        0.63894237807181
C           -3.94119992821208       -0.67653505253350        0.76916840637494
C           -3.66107123995619       -1.35614449869194       -1.51880950635255
C           -5.24068092788730        0.36003574696562       -0.96654646786469
C           -4.61321734041316       -0.43380922012321       -1.91149209794029
C           -4.89339231416021        0.24565190028231        0.36839339608188
H           -3.63771920076583       -0.74057382418555        1.80175530371272
H           -5.36262771961690        0.87918155348388        1.10681331979409
H           -5.99318396682860        1.07120742222360       -1.27430343373187
H           -4.86143710602187       -0.33265364281155       -2.95742549196879
H           -3.16521715228943       -1.97123041329475       -2.25587222406708
C            3.96260038647550        0.96566053999481        1.35675465752551
C            3.19378188121646        1.90761819016399       -0.71588536248181
C            3.94334405597912        3.34513194258204        1.05836110464685
C            3.43095364530398        3.17707705082191       -0.21593559629434
C            4.20854168277246        2.23595774309256        1.84305510869531
H            4.14576225459423        0.10039292479142        1.97727346428657
H            4.60549016811327        2.35767956131753        2.83952182419565
H            4.12313826101619        4.33706680084755        1.44447208729144
H            3.20971790544174        4.03752836200941       -0.82998122790057
H            2.76536881355720        1.78309879967279       -1.69750576889459
C            6.30706690244166       -0.68741444838539       -0.34388466416889
H            5.95488553904206        0.19412081134987        0.18120000646727
H            6.32772798339810       -1.52389630854691        0.35167665847115
H            7.32304727459907       -0.49792291222583       -0.68259795862693
C            5.32766918376596        0.20115233679434       -2.48026821861193
H            6.29635103727166        0.37790669513536       -2.94241633262953
H            4.59832616690429        0.02534989833954       -3.26757731956958
H            5.04571905839081        1.09616293249569       -1.93744080891874
C            6.10133263171045       -2.14089815635228       -2.33524371442569
H            5.52214584075761       -2.42117048069396       -3.21177072908976
H            7.07217899275916       -1.78936188251553       -2.67737579114659
H            6.27092386796467       -3.01741779795851       -1.71442360162784
