89
 energy: -135.463143557130 gnorm: 0.000760695476 xtb: 6.5.1 (b24c23e)
Si          -0.06111906700375       -1.00464356910012       -0.10750077154492
O            1.32937250044407       -0.82937221649154        0.73798037081788
C            1.84283108779709       -1.65187626087855        1.75736064620093
C            2.44393771688821       -2.93718108346032        1.24257577369861
H            1.03050504145791       -1.90098497816840        2.45143224387553
C            2.79673843821262       -3.09929543488688       -0.08739115652096
C            2.66839933804960       -3.97885021921289        2.13509447677865
C            3.36449312393690       -4.28501908524837       -0.52066020950834
H            2.60400359836845       -2.30747325409250       -0.79301886470844
C            3.24165222436943       -5.15958870952512        1.70332818470838
H            2.37601621443994       -3.86732366647980        3.16976519687372
C            3.59378287406534       -5.31524936690124        0.37270048098850
H            3.62146043502438       -4.40220455379500       -1.56323141641344
H            3.40633716399327       -5.96455036118655        2.40486290810265
H            4.03573388381577       -6.24085818889814        0.03389948217170
C            2.91451653429736       -0.84799637620179        2.52259721814879
C            2.34554573265519        0.32988829608812        3.13759469033421
H            3.34689435325406       -1.49008217201356        3.29395728477864
H            3.70949306829633       -0.55380817502678        1.83272474757458
C            1.84491511373085        1.29337128260027        3.64068154453749
H            1.42433539402230        2.13690954044489        4.09966592982282
Cl          -0.03293218000253       -1.67669419273177       -2.05356146276606
Cl          -0.66681334637858       -2.91045784407098        0.70096103611872
O           -1.41521036483796       -0.40627347467764        0.73142226878544
O            0.18026779145075        0.61979220896658       -0.86443543809075
C           -1.61307203697412        1.96384587062589        0.77091041842786
C           -0.22927164060646        2.26241751622506        0.74599542836390
C            1.92738207327741        2.01470317330178       -0.29823033983898
C           -3.44844905981545        0.51089651707795        0.13924796303949
C           -4.37057929212616        1.52328621344747        0.25354751518755
C           -2.57580679474080        2.95615161010523        1.05783976857854
C           -3.89760662505492        2.74306946338543        0.82115148620559
C            0.33017228247626        3.29475758935677        1.52646516275669
C            1.63825852955457        3.65004656175615        1.39994480529369
C            2.48436889404474        3.04692887328709        0.43835688028706
H           -2.23875417972943        3.91801858556948        1.40763887938071
H           -4.59758863542462        3.53109997108297        1.04218267016932
H           -0.29231173627899        3.77465028064752        2.26368961765143
H            2.02108238004490        4.42015663238944        2.04529869527079
C            3.92142823990662        3.53073525749286        0.27462945711082
C            2.55571721343079        1.28623540419287       -1.42787344148679
N           -2.13951474341871        0.72566739612007        0.46096965401337
N            0.64135591341646        1.63912373186686       -0.10997692492705
C           -3.68665216149804       -0.89657103086704       -0.25644454699937
C           -5.83871327033731        1.46901255993632       -0.14414626142928
C           -6.25381263570010        0.20895901834599       -0.90554668207943
C           -6.69128880899345        1.56121197136302        1.13053433132153
C           -6.13931807471923        2.66649846361718       -1.06220395603401
H           -6.19117376500493       -0.67689590953807       -0.28278268955771
H           -7.28727216762164        0.31846098888963       -1.22944938430026
H           -5.63722824338897        0.06013968243416       -1.78698482713785
H           -7.74728679520246        1.53553084727849        0.87237898885416
H           -6.47708992123322        0.71965594117503        1.78555364630901
H           -6.49667548588691        2.47963536112026        1.67809694529808
H           -5.50918849383280        2.62465821230912       -1.94776567216348
H           -7.17880569855555        2.63366086161506       -1.37957538529939
H           -5.97195000398253        3.61867865902923       -0.56828034338592
C           -3.32125278429211       -1.32358172665007       -1.52678577849762
C           -4.15478952260806       -1.81687567427159        0.67334749209958
C           -3.91960542270178       -3.57038822499739       -0.94473564773992
C           -4.27444651164350       -3.14913953253239        0.32525986142824
C           -3.44339269649302       -2.65761470809447       -1.86910339099384
H           -2.92551976809554       -0.61407116845004       -2.23907317042455
H           -3.13953342156539       -2.98301193988914       -2.85176533727871
H           -3.99635683018017       -4.61442699241409       -1.20733936946577
H           -4.62675056096799       -3.86280782458625        1.05468301699854
H           -4.40443178893604       -1.48639280906536        1.67129541844683
C            2.17572531288941        1.64296371872712       -2.72032320246999
C            3.42164684900858        0.21849223730980       -1.24774871115811
C            3.56719757532838       -0.08753247704567       -3.62384198421306
C            3.93152652610866       -0.45895393850030       -2.34273154382302
C            2.68320357636797        0.96251388517752       -3.80966727065683
H            1.47994153865257        2.45674071169825       -2.86423766600534
H            2.37960309933496        1.24568768499785       -4.80617316310505
H            3.95780951888688       -0.62376882565914       -4.47529000085652
H            4.60511909117057       -1.28917222382849       -2.18840629103331
H            3.66960165663358       -0.10690052275914       -0.25120238969498
C            4.25824629884757        3.79782275726758       -1.19873113873554
H            4.27761796158919        2.88357232469664       -1.78085538502987
H            3.52875504627183        4.47466412501767       -1.63821529564306
H            5.23997320337789        4.26077274691930       -1.26947447275088
C            4.87981348864471        2.47744014501265        0.84948780252608
H            5.88463170252183        2.88892766013069        0.91541687213572
H            4.55942024580943        2.18067016691820        1.84649096474116
H            4.91538172704832        1.59959948206743        0.21394309960784
C            4.16505936542437        4.84234360207170        1.03526166502534
H            4.10345623032286        4.69754434646838        2.11088400927987
H            5.16800698310257        5.19959738590752        0.81268771225700
H            3.46089138376185        5.61299818866300        0.73013227140921
