57
 energy: -99.563932855054 gnorm: 0.000999244799 xtb: 6.5.1 (b24c23e)
Si          -0.25801398936534       -0.92712444801722        0.73000135701205
O            0.93937864812815       -2.04815099461997        0.57109670796747
C            1.49052459879035       -2.60273775298545       -0.60337745115791
C            2.67080827724014       -1.76562475375041       -1.03194696575414
H            0.73462423584770       -2.59020097775596       -1.39908128907069
C            3.82156839445807       -1.71177308780412       -0.25483257731728
C            2.59116889514056       -0.97814537555119       -2.17209197895973
C            4.87700021432328       -0.89513574603002       -0.62026872526890
H            3.88486770166676       -2.30008107655955        0.64818641479461
C            3.64269200638337       -0.15378272486982       -2.53229199199696
H            1.69477198551526       -1.00708039259037       -2.77479942280388
C            4.78936052983998       -0.11198259454006       -1.75826940043526
H            5.77011943624787       -0.86704091920429       -0.01291077680565
H            3.56659692026907        0.45824644416703       -3.41965503051522
H            5.61074381868524        0.53083471461150       -2.03959233449924
C            1.87727410302402       -4.06352822595177       -0.31497163330960
C            0.68890587865769       -4.87924131167320       -0.18662835621999
H            2.50087096363224       -4.43749411377104       -1.13171550510080
H            2.44043565649550       -4.10504536736103        0.61951057633960
C           -0.32289809145320       -5.50898847088534       -0.08222001552275
H           -1.19868183443165       -6.08022330068037       -0.00075101676124
Cl          -0.01521063363893       -0.96491667468010        2.76218501130233
Cl          -1.60793817716761       -1.85008095426654       -0.60009549257056
O            0.52642087485115        0.27452463693149       -0.21907011955092
O           -1.54871952593503        0.34062602153455        1.15867308082148
C           -0.50903354738420        2.39906552812225       -0.35624119067628
C           -1.82175325311830        1.87625617579263       -0.57363063501454
C           -3.59127007791309        0.39247734637642        0.06220059375236
C            1.73583211040683        2.12602739477765        0.46812155045800
C            1.95742414919373        3.52158842586556        0.39946947968958
C           -0.27341068793705        3.78674297924822       -0.47320276630557
C            0.91828261322686        4.34229234568524       -0.12300882120875
C           -2.66770593324960        2.43266095984407       -1.56172622343868
C           -3.92354335511476        1.95791532979710       -1.76921726999577
C           -4.43102073032183        0.91493298593903       -0.94848683262049
H           -1.09282963294022        4.41176291908272       -0.78956876027004
H            1.07770669554019        5.40630220657015       -0.19846687456635
H           -2.26352575143440        3.20729823724102       -2.19317477784732
H           -4.54515802028644        2.35766767432903       -2.55505742974811
C           -5.71974100034906        0.38710376439380       -1.09416894764263
C           -4.07065053756584       -0.60003805354871        0.92535329960916
N            0.54803659285092        1.61539044136081        0.01261298881523
N           -2.32088020757833        0.87598056470791        0.19880991632815
C            2.72695881426850        1.28503595244073        0.97582847189937
C            3.18301137564889        4.03024101195571        0.84029993297952
C            4.15722122934650        3.18879020423834        1.33303533210047
C            3.92361637164032        1.81880979018518        1.40372585677229
H            2.54688639446470        0.22539287470139        1.03143362768703
H            3.35191346297731        5.09531660039702        0.78610531599542
H            5.10068794061963        3.59258326702261        1.66684733847005
H            4.68270587780774        1.16236420766571        1.79873007215557
C           -6.16760765426850       -0.60894972521763       -0.25810295355176
C           -5.34334296665824       -1.09208687313155        0.75876117780065
H           -3.42796046994182       -0.96654215577494        1.70870073792813
H           -6.35425056439416        0.77822249329843       -1.87540763144543
H           -7.16001501412982       -1.01437807169108       -0.38255369460134
H           -5.70640711060992       -1.86227635537454        1.42146605187407
