57
 energy: -99.569744663991 gnorm: 0.000577536787 xtb: 6.5.1 (b24c23e)
Si          -0.43007220253058        0.90983031808300        0.82304250545914
O            0.41171031413702        1.64873768386962       -0.34104792564286
C            1.56776938214689        2.44632660808999       -0.32609759098726
C            2.75367684392375        1.63129192709617       -0.78033130305521
H            1.74181718167787        2.82241452539628        0.68949021641334
C            2.57324938653833        0.56887185179167       -1.65608857606948
C            4.03355137362049        1.94063423470983       -0.34098756572221
C            3.65613279509860       -0.17672303561907       -2.08472857771819
H            1.57382745702503        0.33048994536268       -1.98798158203124
C            5.11702657884806        1.19871572987396       -0.77626229061593
H            4.17651773687541        2.76010096164437        0.34830004331612
C            4.93086298971117        0.13864561525312       -1.64767492593601
H            3.50556281096990       -1.00521426050012       -2.76184850883091
H            6.11050908142841        1.44573726850260       -0.43133951564895
H            5.77764425288200       -0.44102083868687       -1.98444453063325
C            1.33667716106336        3.63552766261447       -1.27847760861137
C            0.22942514755635        4.44224168557224       -0.81208084527106
H            2.24696454384764        4.23810015990574       -1.32682902733214
H            1.11106493612444        3.24631533836702       -2.27468156963405
C           -0.70070968889334        5.06769375985807       -0.39415471350044
H           -1.50995063824251        5.62978430571730       -0.03517747829721
Cl           0.65770353830773        1.69444678462382        2.52745564697786
Cl          -2.24321446039289        1.55116525117710        1.58764660524411
O           -1.24095008503338        0.11646141185567       -0.60617304341826
O           -0.00564797298241       -0.64536567782751        1.41040269722599
C           -1.91670112722318       -2.05215590997987       -0.11770352889114
C           -0.54833717092549       -2.45389483281882       -0.00355888058363
C            1.73066654485487       -1.93936679293967        0.57227711405674
C           -3.52094790553633       -0.34415427972110       -0.61311970721499
C           -4.58435295280003       -1.26178102618787       -0.44161663744733
C           -2.96681138845506       -2.98853723722935        0.00439994217310
C           -4.26675184111810       -2.60878041658708       -0.11552317554664
C           -0.11374893869803       -3.66767346482332       -0.57641920102441
C            1.20737525529341       -3.98937866476604       -0.63781290186632
C            2.18043187030485       -3.10919322051658       -0.08535424089719
H           -2.70836885137104       -4.00386811007334        0.25913066510116
H           -5.06780022344610       -3.31664119500069        0.02837698000222
H           -0.85647129464701       -4.30129555028395       -1.03421662042323
H            1.53517288786200       -4.89812028038932       -1.11727819517779
C            3.55438464788223       -3.36415646957453       -0.13813205699650
C            2.64841167901860       -1.09095254381849        1.19648431503954
N           -2.23662996640849       -0.76448860356879       -0.41396836570775
N            0.38763264212866       -1.67379444136988        0.60804391382386
C           -3.78589935475535        0.96861863329296       -1.01895560081281
C           -5.89704462103582       -0.81108999419017       -0.62520752088767
C           -6.14612129592546        0.49151446230680       -0.99188581406576
C           -5.08704410757443        1.37451329726622       -1.20176350205653
H           -2.96123570521754        1.64226636142462       -1.18032684129657
H           -6.70915177174570       -1.50761001806266       -0.48002100520163
H           -7.16172071281052        0.82947101337666       -1.12933162363053
H           -5.28859973109489        2.38813588593601       -1.51105210668170
C            4.45181763067604       -2.50778926553624        0.46160595789144
C            3.99464161398582       -1.38059365834557        1.13773107967411
H            2.29945241635894       -0.22172293416200        1.72877026155335
H            3.89729052173678       -4.25158686450423       -0.64888940775891
H            5.50945219505708       -2.71708418500682        0.41828912000954
H            4.69685059190994       -0.72181691088603        1.62325404916650
