57
 energy: -99.571253853063 gnorm: 0.000784763394 xtb: 6.5.1 (b24c23e)
Si          -0.31657581254733       -1.37083544318016       -0.45806989610051
O            1.25679253836966       -1.17052821463675       -0.10526539233702
C            2.09587121014308       -1.71376419696776        0.89294493773153
C            2.24567291467114       -0.64297035988450        1.94725113441613
H            1.60969947396510       -2.59385636589931        1.32891450994549
C            3.01610063588487        0.49029850796323        1.71933165443875
C            1.49606997959925       -0.72644900396331        3.11377306160318
C            3.04374397606990        1.51713957831228        2.64629448016405
H            3.59255449453849        0.58149710291331        0.81117610399359
C            1.52714411584441        0.29935863584033        4.04213895918793
H            0.87752581353517       -1.59512035999596        3.28385905026344
C            2.30035002012207        1.42427502423782        3.81019501931675
H            3.64672628230574        2.39349879745714        2.45562061671525
H            0.94084385741294        0.22275731685547        4.94601839329396
H            2.32155043695444        2.22744743588073        4.53251159709500
C            3.41576937148598       -2.15077150951667        0.24167961839981
C            3.14958413584552       -3.16503296229184       -0.75765448318254
H            4.07710842161270       -2.54634518441938        1.01694605457641
H            3.89742812983104       -1.29689668175573       -0.24079369267084
C            2.86269726364951       -3.97447014564685       -1.59017937378836
H            2.62337217851743       -4.69689011726639       -2.31126866303931
Cl          -0.98657155003165       -2.39061095028752       -2.10286026023984
Cl          -0.73200696044214       -2.97441219081086        0.91343652963737
O           -1.35147260621164       -0.42650171971805        0.53541792247146
O           -0.18892176113458        0.04567073614922       -1.60362769747032
C           -1.71402776068195        1.79954670965136       -0.16834370149637
C           -0.32694639348736        2.04040739178254       -0.41649672488128
C            1.73250744141396        1.34642609616863       -1.41897080780064
C           -3.53258051571099        0.25566187419933        0.14314016616154
C           -4.47387430419023        1.29927323666910       -0.02450870133372
C           -2.64717635963564        2.85467551645806       -0.25838064604095
C           -3.98681597477509        2.62586765237294       -0.19382870734206
C            0.29770760281280        3.22998042741199        0.01972295842848
C            1.61615185676953        3.46074448419205       -0.21417822977430
C            2.38010298639409        2.51485108417970       -0.95132400313123
H           -2.26862710094078        3.84535888235607       -0.45232158562080
H           -4.69317037602518        3.43394787004603       -0.29731951142543
H           -0.28884980501853        3.92377463782260        0.59995877472454
H            2.09915381779431        4.35072352996206        0.15771556497023
C            3.74042922180939        2.68907883539016       -1.23313850674513
C            2.44117562038370        0.41091471199682       -2.18177372560730
N           -2.19537152540972        0.55526184051426        0.11465249869990
N            0.41204689300816        1.15390954577972       -1.13385133923792
C           -3.97022931804849       -1.05370714970111        0.35766813195067
C           -5.83705055443718        0.98660887117133        0.00059527929633
C           -6.25665605340056       -0.31126215929334        0.19470109541193
C           -5.32135620448077       -1.32649212356625        0.37725876865225
H           -3.25094197138752       -1.84103692130259        0.50978257569774
H           -6.55406247286083        1.78295496188925       -0.13095924212311
H           -7.31102921807335       -0.54100057878980        0.21237982221213
H           -5.65223910678811       -2.34065893525609        0.53699113790183
C            4.43335575867474        1.74786749724609       -1.96139418749334
C            3.77766049121848        0.61354025745158       -2.44041522561742
H            1.93048575073421       -0.46619294830475       -2.54172237846475
H            4.23614610277278        3.57618720250482       -0.86805262931980
H            5.48355896464967        1.88881594838420       -2.16779272098001
H            4.32248094692563       -0.11700897875620       -3.01876838409364
