57
 energy: -99.569451250373 gnorm: 0.000849145899 xtb: 6.5.1 (b24c23e)
Si           0.22712758142697       -0.74678855453037       -0.42361022672740
O            1.52152688074516        0.12954052209502        0.02794437279246
C            2.63574552193514       -0.10711459663775        0.86005426316005
C            3.41669855179638       -1.31931009997570        0.40289442162540
H            3.26526248954814        0.78648131493424        0.70648427413532
C            3.91752149521488       -2.28147479346082        1.26754381801531
C            3.63960356173909       -1.46276497146617       -0.96208031642124
C            4.61266624562277       -3.37103313582119        0.77112547508444
H            3.75834025259160       -2.20579970811853        2.33118338134993
C            4.32482350080293       -2.55498679420409       -1.45767536747760
H            3.24995805829090       -0.71669323270962       -1.63868225373679
C            4.81446524609873       -3.51521001016314       -0.58933767747623
H            4.98804781627032       -4.11787180892827        1.45527589048332
H            4.47173930883872       -2.65739900399957       -2.52255806215069
H            5.34606847542150       -4.37387634597323       -0.97209838863695
C            2.19621052569533       -0.13995410095891        2.33121717024719
C            1.41271558549942        1.03614295101391        2.63999864056324
H            3.07817979917432       -0.16408529446394        2.97506566917684
H            1.58760018254256       -1.03059104448660        2.50184751208117
C            0.76714856235153        2.02074496646935        2.85453590611979
H            0.19306522109595        2.87010092027147        3.07479145655615
Cl           0.09992242299488       -1.68161238927860       -2.24870473342892
Cl           0.65643181241813       -2.57417785413857        0.64609907859452
O           -1.11786562273368       -0.58719779869358        0.63086486842099
O           -0.37126609176991        0.71498094804456       -1.33688780915653
C           -2.57774651684501        1.21681593036785        0.18398992945068
C           -1.51151817376789        2.16214324241404        0.07898345681362
C            0.63583215301236        2.74557179520890       -0.80025187454765
C           -3.33929795273682       -1.06453631192133        0.16609824312440
C           -4.68318158574642       -0.63590576132571        0.04783337760005
C           -3.92127860817675        1.64826457147083        0.14648593745386
C           -4.95077709991375        0.76165990396663        0.07680837761985
C           -1.59086952759208        3.42923610987194        0.69848387444679
C           -0.56020539243823        4.31276773274623        0.62860068804592
C            0.60320824603198        3.98632844700858       -0.12130843631393
H           -4.10848948918608        2.70914099085113        0.10223951068305
H           -5.97244667251650        1.10132946062897        0.01381497967755
H           -2.46687155327092        3.64873155467652        1.28796419854981
H           -0.60387776206022        5.26090870733389        1.14214854727468
C            1.70530149677751        4.84205425710592       -0.22888935872785
C            1.72618461638638        2.42573952978903       -1.61674965861931
N           -2.34808509982495       -0.12447924181524        0.27871156654439
N           -0.41307821032510        1.88360490771521       -0.67016569697738
C           -3.04048533955578       -2.42918058190740        0.18940449785634
C           -5.68917234528539       -1.59966877322826       -0.07625804357329
C           -5.38008842190855       -2.94237109248303       -0.07313232813590
C           -4.05669120385613       -3.35235039342965        0.06532582067206
H           -2.01985714130928       -2.75271691640807        0.30809692839207
H           -6.71314091719505       -1.27065086000671       -0.17133727593407
H           -6.16416196929344       -3.67734961075984       -0.17089010293922
H           -3.81738896867383       -4.40408745008465        0.07685296316964
C            2.79227298671456        4.49365145780965       -0.99821439094157
C            2.79241841099751        3.29042640569466       -1.70321912067952
H            1.71099677541259        1.49751406718557       -2.16209924824948
H            1.68586708440216        5.78284330741556        0.30074037836814
H            3.64063592945084        5.15706301527969       -1.06823271786429
H            3.63674486868071        3.03511751400413       -2.32524938543336
