57
 energy: -99.570114386644 gnorm: 0.000296873324 xtb: 6.5.1 (b24c23e)
Si          -0.39035276527877        1.13091577096620        1.13891479714118
O            0.30173622396923        2.18349774735736        0.11605617993926
C            0.36185003097487        2.19598562994443       -1.29632390414653
C            1.39578420047592        1.20242338596013       -1.76097693683534
H           -0.61681480035177        1.92044920253164       -1.70164842411603
C            2.70733112455917        1.30723563991332       -1.31427434166674
C            1.04799756047082        0.14880287816378       -2.59472936286453
C            3.65945768785834        0.38816722775165       -1.71585774444272
H            2.97649303178570        2.10617759739054       -0.64040306595898
C            1.99659953558335       -0.78227061042426       -2.98081780476813
H            0.02754616247869        0.05608528199328       -2.93750951524974
C            3.30561279223661       -0.66028163193871       -2.54784784385527
H            4.67846775660152        0.48554980199892       -1.37254090153118
H            1.71326126569494       -1.60323813747203       -3.62377168415580
H            4.04787199097971       -1.38187495440638       -2.85565677199191
C            0.70342509670221        3.62884884396823       -1.73707851471167
C           -0.41980218216355        4.51043573275108       -1.50054779784774
H            0.95692405159494        3.62553332585912       -2.80087626379132
H            1.56282506635040        3.98087188709296       -1.16330015198342
C           -1.37506516553688        5.19993672734473       -1.29313844955978
H           -2.19600120030585        5.82492668300401       -1.10511009338092
Cl           0.49440712600122        2.15869776138158        2.76067536155283
Cl          -2.30600910536768        1.21541677488539        1.92506325827573
O           -1.01304726632304        0.17622792732560       -0.33779405119084
O            0.35673479529639       -0.31713799223486        1.67733335339319
C           -1.11735217841284       -2.11070180903709        0.05300637008252
C            0.30298866603908       -2.16883914850732        0.21067323914258
C            2.37592083940082       -1.19201820842251        0.94519173859709
C           -3.09919339866993       -0.84353311189031       -0.40690189213844
C           -3.89477786904812       -2.01015451772564       -0.31611558990646
C           -1.89765403668235       -3.28797300111439        0.09966026918181
C           -3.24801824451579       -3.24751075913330       -0.04788543354793
C            1.02975326689556       -3.23690755603362       -0.35741130108239
C            2.38862361120065       -3.27555613659168       -0.31748445676626
C            3.10932635717258       -2.23327169608684        0.32899751964420
H           -1.39540166666800       -4.21590901541911        0.32080660554532
H           -3.84299426101715       -4.14335374168615        0.03519844667137
H            0.47530610961693       -3.99636058788869       -0.88490774752939
H            2.93475493181819       -4.07955608933284       -0.78473615188860
C            4.50551234093018       -2.20611095187147        0.39783603634486
C            3.04599365925348       -0.17403103381531        1.62830118894832
N           -1.75152209202620       -0.93456122690438       -0.19752981798151
N            1.00722197517681       -1.21538338531298        0.88537356326495
C           -3.69119749151801        0.37945745423587       -0.74252317670424
C           -5.27602224806102       -1.90139824990233       -0.51436574342897
C           -5.84862322873250       -0.68668944454695       -0.81514726293271
C           -5.05059397180142        0.44971255251582       -0.93962738623877
H           -3.07408295337406        1.25736183238087       -0.83443654018963
H           -5.88234047014418       -2.79094872453807       -0.43169880608465
H           -6.91488286225434       -0.61295177480096       -0.96375624982802
H           -5.50170927949804        1.39662701592591       -1.19198566282874
C            5.15699580093305       -1.19029357495279        1.06301481912708
C            4.42389012147531       -0.18038275933080        1.67972212873806
H            2.48396702697959        0.60333888347851        2.11999163340591
H            5.06302414992410       -3.00111790189607       -0.07437412560270
H            6.23522545137942       -1.18139392972594        1.11285815874213
H            4.93440392994216        0.60912209682236        2.20893330098981
