57
 energy: -99.567614087744 gnorm: 0.000718138472 xtb: 6.5.1 (b24c23e)
Si          -0.26832541590293       -1.39526014958546       -0.60104865994116
O            1.33294196828574       -1.33669023196431       -0.35656139440661
C            2.32192308687688       -1.47063586049499        0.63925602005299
C            2.15826271808481       -0.36862427426294        1.65849660377574
H            3.26489851399455       -1.31457345527636        0.09244749866831
C            1.02030758637000       -0.30185191576880        2.45320560681182
C            3.11660110036311        0.63112929671331        1.76250982281288
C            0.83573081900784        0.76256282647021        3.31754783793097
H            0.26838494487733       -1.07199964739225        2.38217362199248
C            2.93678097360324        1.68800491367014        2.63747384195236
H            4.00682537590587        0.58251942302501        1.15098097447975
C            1.79077918747199        1.76098423564129        3.41006260396200
H           -0.05726289877724        0.80958984826796        3.92335258971720
H            3.69116320243221        2.45769440688454        2.71131124685168
H            1.64482428284729        2.59086261139050        4.08609291120289
C            2.37058138842168       -2.86384963518784        1.28566071868274
C            2.59045437326200       -3.87539771644067        0.27445779665386
H            3.18868617937413       -2.87320800726318        2.01155485231663
H            1.43231318462423       -3.07507217407763        1.79964158094992
C            2.76452978190401       -4.66828284931723       -0.60381397285108
H            2.90287499535342       -5.38843174056579       -1.35331546705583
Cl          -0.93286671097546       -2.29471775217551       -2.31013717817423
Cl          -0.79417446946911       -3.04448718028652        0.67569442840174
O           -1.25785590499341       -0.46275255534150        0.45258023634764
O           -0.13033370586115        0.11683355943993       -1.66778756965657
C           -1.54812388015639        1.82069521357356       -0.07775590087122
C           -0.15756309244055        2.02178163648839       -0.33518841487490
C            1.85139591593273        1.31232104317684       -1.42293509040656
C           -3.41874550112380        0.32472616445858        0.14851334314372
C           -4.32138007384943        1.41274825544658        0.07657727636471
C           -2.44051504238571        2.91387603951487       -0.06885724185159
C           -3.78683088564125        2.73001486472286        0.00117460016935
C            0.52594319674272        3.14757277751007        0.17431050526517
C            1.84990591234556        3.33494637448224       -0.06459487265719
C            2.55904076151784        2.41005337233958       -0.87854083574261
H           -2.02663827745951        3.90184995843078       -0.19138561961676
H           -4.46379510323476        3.56907814576944       -0.02730220971268
H           -0.02073647943289        3.82227056285947        0.81296367623218
H            2.37866333783063        4.17291274462190        0.36106765187247
C            3.92275606659123        2.54052536971692       -1.16585793540292
C            2.50448760857516        0.40911739708014       -2.26955119917177
N           -2.07175666598769        0.57628918894521        0.11562003934046
N            0.52685236361896        1.15801078541138       -1.13097320030193
C           -3.90346832782134       -0.97936169333382        0.27479520347023
C           -5.69489887623295        1.15028266054621        0.10142544784246
C           -6.16167277764991       -0.14207596884396        0.20556302828221
C           -5.26386748996486       -1.20216327120217        0.29761409072727
H           -3.21356211583357       -1.80251917974920        0.35854224642779
H           -6.38230194925225        1.98071835669930        0.04117506534230
H           -7.22364783957655       -0.33284392157347        0.22331324355731
H           -5.63112348211035       -2.21225652409886        0.38921852755505
C            4.56125992371521        1.62666596369345       -1.97337541161232
C            3.84581751061112        0.56702822347676       -2.53102110203992
H            1.94389606495814       -0.40704887956329       -2.69285297778487
H            4.46364249343127        3.37321817859916       -0.74158341926133
H            5.61457574182086        1.73306813313211       -2.18375138119636
H            4.34809740538020       -0.13759394843376       -3.17578468456522
