57
 energy: -99.564933387576 gnorm: 0.000637250328 xtb: 6.5.1 (b24c23e)
Si          -0.23096004432124       -1.03427534378808        0.29713231735547
O            0.89070055096623       -2.06914293669704       -0.31074276586777
C            2.18068091093246       -2.40886221604516        0.11993518128155
C            3.22610044418624       -1.47081410948531       -0.43024135330203
H            2.20884614210350       -2.38186082906813        1.21846313091588
C            3.01974959012988       -0.80768209045422       -1.63167117034150
C            4.41527553265616       -1.27290223482934        0.26163570640020
C            3.97728687666045        0.06274312519185       -2.12115371035091
H            2.09303973975830       -0.96454618355933       -2.16104739055184
C            5.37728379965085       -0.41285496988491       -0.23637249105681
H            4.57877567316442       -1.78846264065244        1.19775174736035
C            5.15705510495652        0.26250431750596       -1.42534233449042
H            3.80370772451860        0.58474429489567       -3.05100858080637
H            6.29976081831766       -0.26521987900954        0.30679100559976
H            5.90458114889561        0.94204200258603       -1.80801999789146
C            2.47180097203075       -3.84904106608021       -0.35132907374217
C            1.59123220274516       -4.78764059732865        0.30906958798258
H            3.51323710542405       -4.09602216247622       -0.12926042339580
H            2.31376321241649       -3.89711438071449       -1.43155336562215
C            0.84029834156494       -5.52866592911401        0.87275486269712
H            0.19195449915906       -6.19498557585835        1.35770437878946
Cl           0.25635261843201       -1.20691491662470        2.30784133427578
Cl          -1.58779571056271       -1.88339573497323       -1.04460062759557
O            0.43416190531309        0.36221767925435       -0.43013187961967
O           -1.59454447825398        0.01740235308382        0.99819336143435
C           -0.94260784888062        2.30234328362911       -0.39603152909564
C           -2.18590389900848        1.62075145047703       -0.57864581291320
C           -3.72940119251104       -0.07725273639914        0.10638884671653
C            1.33406755028579        2.33455470243029        0.38354345560206
C            1.34205552427240        3.74922799638295        0.38578026205527
C           -0.91546238176000        3.71440965611841       -0.45158803171579
C            0.18563801287903        4.42739797217966       -0.09198503479351
C           -3.16123790638703        2.11704246337080       -1.47654701761893
C           -4.37766180584734        1.52594002306295       -1.60109955409602
C           -4.71008816817869        0.41022735468781       -0.78724026669468
H           -1.82478030194365        4.22406850416931       -0.72580844157275
H            0.18323981878258        5.50538055329625       -0.12220153534342
H           -2.89054890242890        2.94844786652893       -2.10693952514292
H           -5.09941661975258        1.88810580663650       -2.31643249974619
C           -5.95610359262478       -0.22693223366863       -0.83465626099159
C           -4.02138277242589       -1.16237394819038        0.94077964144019
N            0.23073166479649        1.66834269902864       -0.08866517368777
N           -2.50950096082940        0.53286347457410        0.16559282820132
C            2.44893728943404        1.63357458262461        0.84422710529001
C            2.48055837342867        4.41674150534366        0.84759149772357
C            3.57816428935751        3.71154650072648        1.29209967635803
C            3.55667135010370        2.32043683111271        1.29292885721513
H            2.43486505482105        0.55787639358078        0.85028967547759
H            2.48333983153375        5.49645082914641        0.84735118863067
H            4.45299939251751        4.23765913099669        1.64189153248942
H            4.41111451738385        1.76559632274499        1.64684971804488
C           -6.22545662239967       -1.29986201649561       -0.01787687455282
C           -5.25620619505541       -1.76166832377426        0.87349824817404
H           -3.26708113686200       -1.51306855857059        1.62517835793912
H           -6.70078937212320        0.14197416988719       -1.52396945433300
H           -7.18796121355530       -1.78593142552472       -0.06211258974112
H           -5.47716245786840       -2.59928980598392        1.51673226123598
