57
 energy: -99.569200748078 gnorm: 0.000579236340 xtb: 6.5.1 (b24c23e)
Si           0.40078997781336       -0.67717808072546        1.36268298740082
O           -0.59241960412513       -1.79384553424801        0.74324214317235
C           -0.89860223668845       -2.17397491935230       -0.58363989042039
C           -2.26789748497828       -1.63521871669610       -0.91269197203393
H           -0.16242052887295       -1.74131160747161       -1.26565076978545
C           -3.36088429096567       -1.97836908325747       -0.12659507536290
C           -2.44019635182826       -0.73888013165101       -1.95847452032049
C           -4.60998226722168       -1.45279453317671       -0.40080099452523
H           -3.22228897967205       -2.64286735227137        0.71220398237701
C           -3.68982284316024       -0.20945535538894       -2.22955212372478
H           -1.58961562553106       -0.45355176864495       -2.56245608749317
C           -4.77815598156971       -0.57086104453041       -1.45512018223893
H           -5.45535913883466       -1.72937174719052        0.21178294752066
H           -3.81255058615345        0.48822855740283       -3.04528640996687
H           -5.75363196956971       -0.15983181372319       -1.66873053554188
C           -0.81692251570252       -3.70618435736597       -0.67619844730660
C            0.55888862441224       -4.12761187453897       -0.51749422324748
H           -1.20100071371031       -4.03068600610539       -1.64703364038418
H           -1.42332747967698       -4.14699044378502        0.11744467549895
C            1.71408007101817       -4.40610318115664       -0.37683331869450
H            2.71550174684602       -4.68699229794796       -0.24106136861151
Cl          -0.43550169316806       -1.00363492470189        3.27598741964436
Cl           2.34907710352666       -0.91917237640890        2.02013125895188
O            1.03023703643740       -0.30181219206696       -0.37362106297801
O           -0.07808921410281        0.96674576698472        1.45474004444419
C            1.56045012581039        1.94120740873832       -0.63026384907326
C            0.17889764392945        2.28300646590567       -0.48651588338457
C           -1.99288285551355        1.81254015335810        0.43963751244270
C            3.25057421194806        0.24821042853955       -0.77536995194355
C            4.24411064591696        1.22861726007221       -1.00598528529126
C            2.53600569812124        2.92321414308269       -0.91112575796173
C            3.84585669843296        2.59237257891055       -1.06135021379853
C           -0.40636305562386        3.24923746002470       -1.33089781593405
C           -1.75045380636624        3.46372433061322       -1.33773959079245
C           -2.59421196719436        2.71973876731355       -0.46558665076690
H            2.21900433467201        3.95331607653997       -0.94064663452695
H            4.59442066380032        3.35104779114087       -1.22741824256895
H            0.23636905387689        3.76568721827520       -2.02591846378424
H           -2.19433557248431        4.17824100642185       -2.01276012755544
C           -3.98431942390698        2.86720628701700       -0.44633767398909
C           -2.78130993916616        1.10995887228665        1.35323018820557
N            1.95992002375188        0.64330755223105       -0.56501667117638
N           -0.63144261531461        1.66240639747024        0.41994396480759
C            3.58604240370141       -1.11079387012395       -0.79930225894131
C            5.56788496352841        0.81293280360472       -1.19228876486518
C            5.89133816952913       -0.52426821652029       -1.17774472959888
C            4.89502224341540       -1.48316246688443       -0.99585286342182
H            2.81188845804325       -1.84802598977317       -0.65980096173658
H            6.32850733736633        1.56218257130303       -1.35301296108530
H            6.91530142665533       -0.83465995503492       -1.31830628336265
H            5.15409728633516       -2.53030250592054       -1.00915474486625
C           -4.75408831189879        2.15554786584933        0.44762218201586
C           -4.14878442029301        1.28431729930825        1.34800062427610
H           -2.31852462104673        0.44324638424021        2.06177571342177
H           -4.44183603223224        3.55676602926797       -1.13991633889992
H           -5.82588579520792        2.28076868382129        0.45693360074209
H           -4.75111902710282        0.73821318693924        2.05666509704291
