57
 energy: -99.567627458228 gnorm: 0.000898595057 xtb: 6.5.1 (b24c23e)
Si           0.48661143166221       -0.25703647614533        0.68653689788889
O            0.86801385022234       -1.21444690186023       -0.56125253744207
C            1.67707460435157       -2.36768613061906       -0.58724493743430
C            3.12379778261187       -1.99865436871139       -0.38431968749853
H            1.35722884240386       -3.04799821938651        0.21170878028836
C            3.62839194628783       -0.85064101384419       -0.98035393515698
C            3.95585696898886       -2.78000523242378        0.40375303968340
C            4.94658604256442       -0.48267832780296       -0.78480355138067
H            2.96955069259650       -0.24263797412296       -1.58266766320582
C            5.27791534808078       -2.41624176532796        0.59145332420240
H            3.56133879406345       -3.66456779806292        0.88141255649973
C            5.77455933613036       -1.26732213429401        0.00010096025249
H            5.32924448761266        0.41772251134023       -1.24346478148532
H            5.91922991586470       -3.02612034078202        1.21069704518208
H            6.80405117263765       -0.97966389409623        0.15664744708592
C            1.47332868794163       -3.04242068317900       -1.95526808188772
C            0.10038851809151       -3.46650449693513       -2.12082434686194
H            2.14195285898237       -3.90374814306411       -2.02846086011440
H            1.72689509146402       -2.32524985278445       -2.73943089050612
C           -1.04618863186837       -3.79220006735678       -2.22588237363818
H           -2.04643115975185       -4.08770357658800       -2.33417233717044
Cl           1.71752180957327        1.07463197801307        1.70054729153322
Cl           0.71757382301719       -1.74448134586956        2.25548942905802
O            0.15888594716695        0.96330124866722       -0.62707951202636
O           -1.15077898136504       -0.15010069986755        1.17059600308981
C           -1.68444641786112        2.29446465806959       -0.12476671940075
C           -2.54496789977860        1.15591929440303       -0.20766977385808
C           -2.90271237272398       -1.20624962447195        0.07062096739966
C            0.50638955244627        3.24313597495187       -0.32200284381854
C           -0.00166309163964        4.53343756475996       -0.03929435655465
C           -2.20929158226243        3.58571334637110        0.10589953079445
C           -1.39909408534003        4.67429197811561        0.18229705473654
C           -3.79783229157962        1.25509578959642       -0.85034428100930
C           -4.56798052769522        0.15631432194257       -1.07561132796352
C           -4.12341376305241       -1.12449170782198       -0.64205765453923
H           -3.26906183493559        3.67384780861175        0.28357490862339
H           -1.79947623455017        5.65045089320584        0.40655120468632
H           -4.09733854727211        2.22143495824251       -1.22307301500185
H           -5.50716815928694        0.23531365279338       -1.59997921736767
C           -4.85075636846301       -2.29745036265201       -0.86848237480745
C           -2.46157530254000       -2.43660696689513        0.56319157122074
N           -0.34448864481758        2.17301971812325       -0.32549997155699
N           -2.18668387952663       -0.06018448949131        0.29080649046474
C            1.86195467578754        3.08018302999019       -0.62847951211762
C            0.88496374967920        5.61629446130626       -0.01210730524744
C            2.22262879630748        5.43505027896332       -0.27963416940988
C            2.70457634479142        4.16688909024211       -0.60134082326107
H            2.22825881546808        2.09909914492467       -0.87634716710355
H            0.49699636902519        6.59737702814652        0.21766595019255
H            2.89867897312820        6.27568366652431       -0.25196486003297
H            3.75031356328126        4.03413184365538       -0.83088333036070
C           -4.39721523835336       -3.50839075928421       -0.39147540551627
C           -3.20712887268803       -3.57225213144585        0.32869311415870
H           -1.54674585836405       -2.49137456117618        1.12863626791239
H           -5.77846491097903       -2.23451890408757       -1.41757315638928
H           -4.96867108041629       -4.40704757486521       -0.56901998627634
H           -2.85786605512289       -4.51952171564094        0.70910391244595
