57
 energy: -99.572738181133 gnorm: 0.000795694043 xtb: 6.5.1 (b24c23e)
Si           0.20567331804176       -0.89176572112620       -0.54233441750713
O            1.42917367382529       -0.07450986636088        0.15641365991162
C            2.41681275502693       -0.50296676065613        1.06433622590567
C            3.47573665915881       -1.32755123886946        0.38040725421083
H            1.94254769888541       -1.10068549028687        1.85164273785400
C            3.92375584933081       -0.97560580861542       -0.88491031990457
C            4.01072004828620       -2.44414961449125        1.00584457311156
C            4.88906266737199       -1.73433442833656       -1.52118881017679
H            3.49681354687604       -0.11366479834408       -1.37487197834051
C            4.98122376956288       -3.19884731210665        0.37191182222384
H            3.65217480502317       -2.73130944565183        1.98342216407981
C            5.42118187074478       -2.84698667300158       -0.89242569506255
H            5.22290967536417       -1.45920888529414       -2.51109690959961
H            5.38642023964057       -4.07177402441955        0.86214275524577
H            6.17255152896718       -3.44229662737992       -1.39000060455469
C            3.03409617093231        0.76211301704491        1.69096917754764
C            2.02888237667274        1.50421706659446        2.41937156252427
H            3.84032639466222        0.46544178616020        2.36629700924406
H            3.44612456307285        1.38784466424438        0.89499677586415
C            1.15446759929274        2.07768676993949        3.00104498891319
H            0.40661357345407        2.59013941379246        3.52830023940323
Cl           0.30004059930216       -1.67044887075793       -2.43838628944379
Cl           0.52906849627462       -2.78264914388872        0.43430536977856
O           -1.23865486444079       -0.80584049290826        0.37699509815871
O           -0.28733733344225        0.64700289569474       -1.38834961732115
C           -2.57702024632183        1.11390164637837        0.03036835468814
C           -1.46797212029349        2.01425059906807        0.07767735666512
C            0.73045366371641        2.60484375564462       -0.65840716292799
C           -3.43721148584925       -1.11064661669240       -0.28641715400472
C           -4.75184511064137       -0.60498611195804       -0.42462960708266
C           -3.89655310546940        1.61320326956943       -0.02747405221756
C           -4.95869497442074        0.79231146268302       -0.24845516918658
C           -1.52904961713780        3.21745907319698        0.81678863581590
C           -0.46996959585342        4.06738337034109        0.87050349549654
C            0.70750821233672        3.78020784730424        0.12719038474985
H           -4.03405049921983        2.68050268393925        0.03855951257714
H           -5.95951647692796        1.18734120593073       -0.32232851042579
H           -2.42029213990542        3.41003259518159        1.39250697700374
H           -0.50309828209201        4.96088255832841        1.47418102447938
C            1.83396291682481        4.61025269276559        0.12825066910165
C            1.83781607124915        2.32458082084894       -1.46638059473513
N           -2.41412258930972       -0.24036710256904       -0.01263217499705
N           -0.34315476583617        1.76440442359760       -0.64068581229295
C           -3.19829236117085       -2.48205786961261       -0.40557093726919
C           -5.78979012860072       -1.49798313500575       -0.70985629136768
C           -5.53923029016618       -2.84624569928429       -0.84476914232519
C           -4.24467810954378       -3.33421424446835       -0.68731092679861
H           -2.20003018547967       -2.86486219405779       -0.27274368167842
H           -6.79170605230519       -1.11047652971287       -0.81846302874408
H           -6.34771428765086       -3.52603562854478       -1.06560692796489
H           -4.05226610290078       -4.39107515167681       -0.78503284790122
C            2.93419820310407        4.30168796965187       -0.63942533933828
C            2.92662693680847        3.16540666100608       -1.44832192312677
H            1.81164588471361        1.44768968202598       -2.09182267441786
H            1.82305626734140        5.49924890118013        0.74053475627453
H            3.80037632879861        4.94537798533338       -0.62719396559178
H            3.78341136031390        2.94384066862924       -2.06689701451402
