57
 energy: -99.562391810993 gnorm: 0.000832937693 xtb: 6.5.1 (b24c23e)
Si           0.23681837861825       -0.26953974909986        0.39603110998745
O            1.54934010098975       -1.11250278719692        0.80263819414784
C            2.17824695606035       -2.27564647817984        0.32913951224436
C            3.52515229738114       -1.92818627036318       -0.25377224347682
H            1.55384267364721       -2.75181503132594       -0.43556803042839
C            4.20042606721175       -0.78905849386098        0.16230128285463
C            4.10988587159622       -2.76170568484345       -1.19848211244639
C            5.44222012140445       -0.48350694419762       -0.36657194872623
H            3.73961710442933       -0.14357374067851        0.89474093287190
C            5.35506585967422       -2.45893728822627       -1.71939519955356
H            3.58315585148410       -3.64566606187173       -1.52902040162558
C            6.02289043396743       -1.31826486253654       -1.30582031107408
H            5.95899865670115        0.40766063386310       -0.04085049694799
H            5.80347419687266       -3.11199336170758       -2.45400034395480
H            6.99292660473035       -1.08045183069612       -1.71753358870116
C            2.34284107339909       -3.24221701145513        1.51889610289746
C            1.05360895148923       -3.69371047226322        1.99408425084485
H            2.94368838605091       -4.09867592698997        1.20289750403953
H            2.86383380558385       -2.71538682138862        2.32255062938593
C           -0.03362536721373       -4.03529688086775        2.35863525632496
H           -0.96893475485464       -4.36002652203767        2.70570683092298
Cl           0.77419068504140        1.06162541700979        2.00133582040537
Cl          -0.40378556669055       -1.66001682189357       -1.19456621574714
O            0.17625542507189        0.94878238230483       -0.80632597483061
O           -1.36181696839644       -0.14278688693090        1.00956800066190
C           -1.72766867615621        2.25119745464627       -0.39927703999349
C           -2.61859246427851        1.12678300293632       -0.49754580392731
C           -3.22370165136322       -1.14064497269629        0.02758625190895
C            0.47954241812981        3.20154211672220       -0.31001040189053
C           -0.05690687535536        4.49223093144133       -0.09096463034512
C           -2.26782400255167        3.54586490470727       -0.24225137813674
C           -1.47049667125348        4.63702223033935       -0.07826119492206
C           -3.80375946538480        1.24373738524591       -1.25589338563023
C           -4.65962673084655        0.19628999418228       -1.40961662318512
C           -4.38606956272601       -1.04460380955670       -0.77292511348727
H           -3.34037319019450        3.63904018218423       -0.18275558787312
H           -1.89698251461738        5.61417395155019        0.08493285299910
H           -3.97983731303101        2.17385248683334       -1.77220846322172
H           -5.53909556768392        0.28654111396078       -2.02757816724504
C           -5.21173928994317       -2.16800024441670       -0.89716614355634
C           -2.92707819109206       -2.33178058102847        0.69610006945565
N           -0.37272714930318        2.14980609651789       -0.48709791488269
N           -2.40944308708537       -0.05206263803233        0.15010578018581
C            1.86380691531272        3.01873206399414       -0.36778744687417
C            0.82313316047872        5.56442594887405        0.09563734629210
C            2.18492427962741        5.36790327961843        0.05712139042710
C            2.70115056841788        4.09504318216324       -0.17929940260555
H            2.25978031256422        2.03353719296586       -0.54822278395930
H            0.41273247664076        6.54757706258112        0.27052415922470
H            2.85549810714466        6.20011929419005        0.20666682131244
H            3.76949584736317        3.94847958730677       -0.21360537410802
C           -4.90169614158462       -3.34047332608718       -0.24625534378555
C           -3.76067459863001       -3.41756003486651        0.55072254353366
H           -2.03722154592987       -2.38836589303118        1.30142824434205
H           -6.09494332387204       -2.09695334756712       -1.51410336163129
H           -5.54209351974065       -4.20284110369423       -0.35109853895806
H           -3.52547039731333       -4.34150101654132        1.05588008046121
