57
 energy: -99.567626703275 gnorm: 0.000555103397 xtb: 6.5.1 (b24c23e)
Si           0.25501674157915       -0.42709087970521        0.67677651419534
O           -0.05517274894205       -1.41425638472551       -0.56734445423314
C           -0.11714538903668       -2.82051056433023       -0.61125367209918
C            1.25948011903296       -3.41558762936005       -0.46561691450042
H           -0.75774009570804       -3.17778900703633        0.20442866223675
C            2.33822054160027       -2.81073019841840       -1.09647022766378
C            1.46755427923409       -4.55137182665666        0.30285451891694
C            3.61129684117528       -3.33192206958035       -0.95768200336822
H            2.16949764197100       -1.91836771275797       -1.68124041659488
C            2.74090784475552       -5.07672781168460        0.43545595079807
H            0.63279364883986       -5.01319840560143        0.80909915505161
C            3.81404613623270       -4.46833565554179       -0.19303037130134
H            4.44709134957106       -2.85071040003443       -1.44479416631394
H            2.89714394933459       -5.95793924211841        1.04008979045680
H            4.80843889728503       -4.87500418532891       -0.08112314083652
C           -0.73939933370582       -3.20833942536503       -1.96448838317424
C           -2.07306495843214       -2.66169377962696       -2.09051101661294
H           -0.77205597872151       -4.29797927271246       -2.04085381749321
H           -0.11039766640297       -2.81273379998571       -2.76557644486836
C           -3.16593605279002       -2.17957451030679       -2.15937306093196
H           -4.12830625233041       -1.77048105445902       -2.23853827093263
Cl           2.08565994915466       -0.00860679853768        1.56197349799753
Cl          -0.25080017314366       -1.82292269620775        2.26846952652354
O            0.55716540280992        0.78450947708691       -0.64961974341222
O           -1.00631700878386        0.56574809904645        1.27337584066503
C           -0.23308782287788        2.90074735821036       -0.08490832211126
C           -1.57566385087479        2.40924278689188       -0.07379857240684
C           -3.12930426335769        0.61837138939102        0.32778282767314
C            2.10354443498440        2.51019898552507       -0.43732924984806
C            2.39458719262727        3.86882340245904       -0.16770075459657
C            0.04002382629762        4.26994269487251        0.12830794962110
C            1.31352114288949        4.74519548130256        0.12391182167653
C           -2.61798930105474        3.16637771763409       -0.64967539280615
C           -3.87214929061656        2.65631590675812       -0.78573608790059
C           -4.15893820082601        1.34169232026490       -0.32139155265001
H           -0.78948397220327        4.91868844758865        0.35970593464150
H            1.52054220940191        5.78221273866408        0.33619380369665
H           -2.37483957492036        4.13911315322669       -1.04618565842993
H           -4.65418460269704        3.22682401106734       -1.26139407025026
C           -5.41717659195640        0.74605385179847       -0.45735434600289
C           -3.38918699263984       -0.65058510076609        0.85091202350496
N            0.81114354686536        2.07207732745285       -0.35711416378636
N           -1.89528943207303        1.19616358354257        0.45698106807096
C            3.13180895967464        1.63969750842960       -0.81536558321439
C            3.72619549128089        4.29677900253385       -0.22178047580173
C            4.73243774746213        3.41945754570109       -0.55567970408622
C            4.42878099575068        2.09467466307184       -0.86678816973135
H            2.89063740985674        0.61886064978740       -1.05623736028611
H            3.94702875163452        5.33041145267224       -0.00131063908522
H            5.75637268101951        3.75822100382529       -0.58894072377607
H            5.21877580668073        1.41684371553513       -1.15016740156524
C           -5.65633395740045       -0.51440960648025        0.04653070323893
C           -4.64261336480670       -1.20539382264282        0.70537077446366
H           -2.61265524291353       -1.18523669438517        1.37151865923877
H           -6.19973643171909        1.29614553865339       -0.95856103061560
H           -6.63186240975817       -0.96384293169831       -0.06243777794552
H           -4.83446557830825       -2.18789034693974        1.10720511856558
