63
 energy: -105.907051945223 gnorm: 0.000783157722 xtb: 6.5.1 (b24c23e)
Si           0.24757960695983       -1.36095215244947        0.51307790150840
O           -1.34856146000046       -1.05748658532022        0.44061741246475
C           -2.44611606620239       -1.88998683963451        0.14693692789473
C           -3.20093546981784       -1.33414909065104       -1.03290258380082
H           -2.08302738997774       -2.89623784510056       -0.08854821823517
C           -3.52912423854456        0.01469116094427       -1.07535793273993
C           -3.57956490184493       -2.15849851660880       -2.08362917588951
C           -4.22312243864773        0.53278599139381       -2.15350837156732
H           -3.23040022429631        0.65798322135486       -0.26147036733775
C           -4.28257789455930       -1.64137112574789       -3.15799321566069
H           -3.31546699708064       -3.20559456358918       -2.06068860772696
C           -4.60522304195876       -0.29542111033044       -3.19583472017758
H           -4.46947530110806        1.58489889981466       -2.17721645427081
H           -4.57436587147694       -2.29028066293138       -3.97109779144190
H           -5.15043133156122        0.10767383932005       -4.03697892135461
C           -3.36069329407244       -1.96852706321766        1.38546506989189
C           -2.60792755986151       -2.43970880291609        2.52792607100242
H           -4.18518174549369       -2.65213108569552        1.16844008791145
H           -3.76698076548053       -0.97574141747177        1.59656548346238
C           -1.91921353254298       -2.80583146507609        3.43541625821379
H           -1.32551418039406       -3.14008469753812        4.23290649087764
Cl           1.28251781701077       -2.18035679304908        2.08560889286565
Cl           0.21933329271173       -3.20706349273247       -0.61540431718027
O            1.05561814495791       -0.65249055737058       -0.83291700125193
O            0.48583294301705        0.20126078901415        1.42975131718855
C            1.92680235521861        1.48764810999154       -0.40475096176289
C            0.58490010237441        1.93774449636493       -0.10836766993343
C           -1.29712396757749        1.69519344517785        1.35665390569219
C            3.36613283776430       -0.39813708529636       -0.83784448026483
C            4.50245602014324        0.44194111119793       -0.76805213909450
C            3.04793000013928        2.34232658372918       -0.32739603957083
C            4.30437516019442        1.81997758895375       -0.50781777161706
C           -0.05127784264821        3.00706744125654       -0.77692366336775
C           -1.29275497297037        3.41369932740309       -0.36164574634005
C           -1.93356679066436        2.80071990603207        0.74330506124806
H            5.16960168485826        2.45706938161902       -0.40577970431559
H           -1.80822260563625        4.19934009252733       -0.89292769921155
N            2.13187414344083        0.16693030696877       -0.67716339489729
N           -0.08426819528918        1.29489106330456        0.88727694594051
C            3.51541451832533       -1.76459667861198       -1.08554754618323
H            2.64658322477577       -2.39735958314599       -1.15418951867506
C            5.77095459702286       -0.12869539764965       -0.93260022970194
H            6.63859415329449        0.51092798868880       -0.87142315547428
C            4.77882894253431       -2.29168909756577       -1.24706923734442
C            5.90702694428079       -1.47873975551341       -1.16728254167119
C           -1.89979313030319        1.04334050119212        2.43799900788493
H           -1.39773866558135        0.20418034295128        2.88999091590099
C           -3.18397425191091        3.20745726393475        1.22868880604105
H           -3.67767290347438        4.04297622167757        0.75546328427642
C           -3.12515905635888        1.47521268640108        2.89346700486054
C           -3.77201295934249        2.55242863712447        2.28759257359412
H            4.88860057944387       -3.34776910590159       -1.43677039717401
H            6.88918428787211       -1.90846568667971       -1.29189777017344
H           -3.58818757679620        0.97070006771308        3.72784925819902
H           -4.73639555209106        2.87242703280559        2.65164643312843
C            2.91213517062898        3.78527416358684        0.06052690185632
H            3.04157357363399        4.42861329241232       -0.80828738884548
H            1.94637513815411        3.99393704666249        0.50960909912606
H            3.69053743582521        4.04029836332466        0.77651725928895
C            0.55425667421371        3.62135812541671       -2.00389192132046
H           -0.17072637277276        3.58433124657273       -2.81534568993722
H            0.80008342484020        4.66765709162484       -1.83081048918763
H            1.44808677466140        3.09208642930011       -2.31805953563973
