63
 energy: -105.907978404160 gnorm: 0.000462308144 xtb: 6.5.1 (b24c23e)
Si          -0.42658904238959       -1.01483014177899        0.42320162777821
O           -1.58735242495786       -0.05336642704922       -0.19063975542169
C           -2.62376903511728       -0.33271373681622       -1.10117552934287
C           -3.75211535221262       -1.07961652711683       -0.43865892863505
H           -2.22398926676840       -0.93328110113481       -1.92656455032461
C           -4.13662277629550       -0.75554505026692        0.85446949726631
C           -4.42073454382570       -2.09013630472670       -1.11469563912843
C           -5.17306701113201       -1.43547007244288        1.46753341493831
H           -3.60613967758446        0.02223889821345        1.38183009401096
C           -5.46202637568195       -2.76539206631364       -0.50353096910789
H           -4.11325848781817       -2.35670374214612       -2.11513245650305
C           -5.84015460838943       -2.43980988142141        0.78789942728026
H           -5.45850755787221       -1.18241571492342        2.47811677705447
H           -5.97406300156627       -3.55443714320370       -1.03413094070664
H           -6.64890396100104       -2.97253673940968        1.26624104781474
C           -3.12534431103977        1.01564965482992       -1.65251199430203
C           -2.07754141977909        1.68400358276806       -2.39126543318914
H           -3.98077067102055        0.83173202126471       -2.30732831669551
H           -3.44349736866643        1.64405668772706       -0.81679226323791
C           -1.17169764160946        2.19066077134281       -2.98637985238025
H           -0.40282889192245        2.64984678420280       -3.53149600671149
Cl          -0.53695607697169       -1.99893363069285        2.22302781622115
Cl          -0.89534943736045       -2.77743176686987       -0.73690323798976
O            1.02057128214903       -0.89935595529229       -0.50065213698656
O            0.15168669763934        0.38801864238070        1.44060727788401
C            2.53091177119113        0.72540454987803        0.28218892169331
C            1.50115015393700        1.72539120202045        0.10318707658839
C           -0.66877792366524        2.46694012566719        0.79617466246534
C            3.07335624963483       -1.62473014049314        0.30655192662206
C            4.37082413299984       -1.33007389773660        0.78749274524127
C            3.81553885741075        1.03918145947514        0.77614438562872
C            4.71016249766444        0.02593092829350        1.01640311676423
C            1.64938395176142        2.87009456507896       -0.71115466312048
C            0.63684736843000        3.79293786807560       -0.76110948231182
C           -0.53614273142951        3.63848887853640        0.01704850147792
H            5.67913183016579        0.25405642239977        1.43340370438275
H            0.71658483465220        4.64701556524085       -1.41635998316271
N            2.22454487887934       -0.58397657582182        0.05126836346404
N            0.33397349935638        1.54807558330847        0.77784692285223
C            2.68850346636916       -2.94841682761593        0.08181253655934
H            1.70358968319347       -3.16479965486391       -0.29725835540903
C            5.24922768530310       -2.39074000962293        1.04217589754225
H            6.23779133397563       -2.16711240522311        1.41410895411206
C            3.58011995276567       -3.96753543972148        0.34110548867719
C            4.85794240950356       -3.69273427866570        0.82226138405288
C           -1.80117512673142        2.27366014239666        1.59390456329158
H           -1.85618896849041        1.38750275964887        2.20449463674247
C           -1.58120943152200        4.57139428699952        0.02862224151492
H           -1.49086110886065        5.46028338640134       -0.57702062196423
C           -2.80528765149595        3.21453837500328        1.58951328523670
C           -2.70242499657476        4.35877100948671        0.79803940576108
H            3.27863589286001       -4.98843406930943        0.16725602850036
H            5.54278280048481       -4.50264566094969        1.02178911724576
H           -3.68039511110623        3.06612018862961        2.20423058028871
H           -3.50356656969333        5.08208999371637        0.79679501312526
C            4.19067781991919        2.44118981848998        1.15707659731211
H            4.88683440220770        2.86136478811071        0.43311524489185
H            3.32194321357070        3.08802539236525        1.22535035734750
H            4.69025741923337        2.42900414621622        2.12354799811263
C            2.83955906112578        3.02915074372863       -1.61061153034555
H            2.49941108127096        3.21934937054774       -2.62693046105030
H            3.44378053258518        3.88147376413128       -1.30438958406231
H            3.45921080032580        2.13815360506044       -1.61734294562839
