63
 energy: -105.905687059389 gnorm: 0.000485117118 xtb: 6.5.1 (b24c23e)
Si          -0.29160652419262        1.36828352153073        1.10450751660422
O            0.58272586204638        2.30130472169122        0.10667279408513
C            0.67056343097566        2.31856571855508       -1.30360134594038
C            1.61261158478953        1.23868810848589       -1.76875990129478
H           -0.32232418153344        2.14468108433686       -1.72933379886763
C            2.91007811027006        1.19127874046655       -1.27370560316704
C            1.19571674783914        0.26870571492526       -2.66928874883796
C            3.78443439896308        0.20658921438909       -1.69566279818987
H            3.22803349413838        1.92477765483731       -0.54841151636947
C            2.06643269616940       -0.72574664955929       -3.07964716887753
H            0.18368741965954        0.29282734832028       -3.04671235493925
C            3.36450778209668       -0.75375791695626       -2.60033051556335
H            4.79456124711170        0.18656439298908       -1.31494082080544
H            1.73135332149939       -1.47667464577600       -3.78089341354651
H            4.04748709521108       -1.52335215313160       -2.92871804162996
C            1.15924400681163        3.71531827332815       -1.72301191640505
C            0.13139119399798        4.70329549638636       -1.47370488058892
H            1.41415604965729        3.70143805649095       -2.78641390565759
H            2.04907570111811        3.96759788286690       -1.14303531285645
C           -0.74948004480525        5.48241159980266       -1.25409178311615
H           -1.50284624657756        6.18594775482279       -1.06049107362548
Cl           0.58317659001788        2.35850841335533        2.75753582057695
Cl          -2.23368327022113        1.69429849783536        1.74339097236301
O           -0.91690100228955        0.42741952777622       -0.39853502577980
O            0.25176854400113       -0.13674228858149        1.73247709155216
C           -1.28145020214125       -1.79210582207375        0.16823208793383
C            0.15446812266299       -1.94943322000844        0.23205032874879
C            2.25417664236280       -1.11274773898361        1.07450504674644
C           -3.10134847989202       -0.35891785253928       -0.45545884012220
C           -4.02456730116330       -1.40194004698034       -0.21217255152154
C           -2.18731732018175       -2.83435282762624        0.47199953769567
C           -3.53074632118095       -2.62586251952326        0.30079060152431
C            0.83420913699682       -2.95400257564070       -0.49031422642258
C            2.20032362917495       -3.04271720048971       -0.40055857400986
C            2.94772984375702       -2.14303498854541        0.39796701411852
H           -4.23447878284590       -3.39703138963779        0.57496660016845
H            2.72865079850142       -3.78675357911936       -0.97657122243640
N           -1.77851526551039       -0.58569201870574       -0.21730047462977
N            0.89161164409994       -1.07365642819426        0.97529473294233
C           -3.54456507855554        0.86846558614668       -0.96105362498049
H           -2.82826114616862        1.65090451194986       -1.14865385927619
C           -5.38351864482884       -1.16793756882128       -0.46208477262945
H           -6.09024278905272       -1.96001971272399       -0.26513142626127
C           -4.88402525103689        1.06071681771974       -1.20484008697472
C           -5.80704149459874        0.04638334039158       -0.94991997368224
C            2.95345258674699       -0.18173732498393        1.84580816768061
H            2.41876519653988        0.59576983527490        2.36660708568100
C            4.34038017810576       -2.20906314943808        0.52177719564229
H            4.86979068692173       -2.99585592260582        0.00569575703848
C            4.32585590567908       -0.27685674344240        1.94511712412960
C            5.02110149836034       -1.28811264784755        1.28771480014702
H           -5.22258785827461        2.00780845742299       -1.59510968056025
H           -6.85585527613906        0.21729537790190       -1.13813672547670
H            4.86110912900033        0.44251773371214        2.54505485198766
H            6.09503090476048       -1.35007384023257        1.37885675737198
C           -1.71540964177415       -4.11681619173738        1.09052911135717
H           -1.89459245034904       -4.95681081600451        0.42158852584451
H           -0.65984361241587       -4.07988739455116        1.34005496734199
H           -2.27938457060865       -4.29918284455940        2.00374593503569
C            0.11229672301876       -3.86120669623826       -1.44283162496999
H            0.65752702704342       -3.89563469949415       -2.38401868528053
H            0.07121110441992       -4.87595317575218       -1.05052021685160
H           -0.89903127819182       -3.52042479320740       -1.64045393217465
