63
 energy: -105.904474442388 gnorm: 0.000591114081 xtb: 6.5.1 (b24c23e)
Si          -0.05409691423323       -0.76946120175668        1.32588880689483
O           -0.46907142182824       -2.06082378640413        0.43547893396932
C           -0.14480310187646       -2.40869114591947       -0.88935564477476
C            1.32236960507001       -2.71315395366200       -1.04112561020700
H           -0.41071673243476       -1.57673934889846       -1.55334632443840
C            2.03193753433002       -3.29048834761785        0.00303235669177
C            1.97853976946144       -2.42006316040188       -2.22986160573732
C            3.38361076737757       -3.55453089876110       -0.13329443400558
H            1.52284521898494       -3.51323508548993        0.92825814796358
C            3.32804765135385       -2.69252584799701       -2.36876042254299
H            1.42991961175940       -1.96707318610665       -3.04376441435338
C            4.03390920421850       -3.25670759000104       -1.31892583627800
H            3.92891083961944       -3.99216641482889        0.68935135347697
H            3.83112204019492       -2.45591190190373       -3.29511023832747
H            5.08896721744815       -3.46218902792439       -1.42561810675864
C           -0.99479772297505       -3.64046982218976       -1.25562501914924
C           -2.38368604290454       -3.26829386717494       -1.41236016609003
H           -0.61962824001796       -4.07386214899476       -2.18655226132954
H           -0.89889348379474       -4.37453608551119       -0.45275192159556
C           -3.51380811451009       -2.89852571342706       -1.54546553066571
H           -4.51465129987359       -2.60570812351891       -1.65438031232450
Cl           1.72453036426889       -0.35739287090656        2.31261617958465
Cl          -0.93905437982634       -1.66963514229337        3.02511369422030
O            0.62094200070799        0.03704540735668       -0.24178594315299
O           -1.13062902668027        0.55997496519904        1.46850941164672
C            0.20290213775300        2.31700839905315       -0.14185338846676
C           -1.18755718497976        2.00015295540624       -0.38811214646470
C           -3.06574779888199        0.59044996600423        0.17319476167392
C            2.44588516128456        1.47041241660367       -0.08879629896320
C            2.94977450471095        2.77957446319021        0.08969636090479
C            0.67550122476883        3.62839012572738        0.08620449077106
C            2.02293295915747        3.84183040335829        0.21947081415256
C           -1.91632593326386        2.56960743453215       -1.45357436427879
C           -3.20233533661661        2.14915840204691       -1.68919789447647
C           -3.81573124460552        1.15729330567677       -0.88473729509799
H            2.39153904965859        4.83128406720344        0.44348955049824
H           -3.75161062120040        2.54932259790319       -2.52772085263174
N            1.09656303952668        1.28982954308517       -0.15224892083603
N           -1.79730097944205        1.05410669626775        0.38509034334310
C            3.32394612608092        0.38965556457814       -0.22480610949098
H            2.92302091802168       -0.59714613735257       -0.37880145036398
C            4.33824713025018        2.95914977323303        0.15980743341601
H            4.72429420512305        3.95618681129490        0.31015279736570
C            4.68027501022183        0.60370285072038       -0.16316157129063
C            5.19055908484234        1.88649270325046        0.03873063729012
C           -3.62843805735376       -0.39542507884138        0.98579081073049
H           -3.05852343366460       -0.81800452075189        1.79582153872105
C           -5.12155294355542        0.70129773592884       -1.10198505578956
H           -5.69224210305347        1.13040233713825       -1.91212988522682
C           -4.91993859247412       -0.81629950022430        0.74727648325143
C           -5.66747348977847       -0.27212912584172       -0.29390233810891
H            5.35247087369326       -0.23326425905809       -0.27004271293961
H            6.25790350107584        2.03570560337854        0.09708081821738
H           -5.34943946177004       -1.57809590587138        1.37873843728348
H           -6.67759365804652       -0.61254206149034       -0.46725614569839
C           -0.27675685979007        4.76631258322142        0.30579467573814
H           -0.17079360365054        5.51486281132452       -0.47749675453728
H           -1.30737234031580        4.42805415748986        0.33915806571609
H           -0.04187631542546        5.24795951291389        1.25347617426695
C           -1.28743041636260        3.54426735745451       -2.40560480308979
H           -1.56320215314294        3.28182779842969       -3.42502816549270
H           -1.65298887816613        4.55227177014495       -2.21614645490129
H           -0.20467186447013        3.54533474200598       -2.32803967791013
