63
 energy: -105.903415570314 gnorm: 0.000849326439 xtb: 6.5.1 (b24c23e)
Si           0.69700330829119        0.27547748347415        0.61950276213905
O            1.57081042013303       -0.32362720217214       -0.60400521244605
C            2.91777470977456       -0.73292443270111       -0.63525043728182
C            3.84765855645961        0.44035292564678       -0.46566564682729
H            3.09145813125507       -1.45448599086605        0.17252034513094
C            3.52091769898595        1.66779240993753       -1.02493289416390
C            5.02990834777349        0.30939894875439        0.24847012032021
C            4.36053120218743        2.75477026524491       -0.86500786487752
H            2.59348111982258        1.76525454965628       -1.56934956261664
C            5.87404967142078        1.39488138376493        0.40046388063289
H            5.27862000067626       -0.64056298810671        0.69816432386734
C            5.54059930378503        2.61897197090084       -0.15405030551133
H            4.09260837955790        3.70980440865999       -1.29294395269738
H            6.78989105089913        1.28765460045312        0.96292929630678
H            6.19631506670628        3.46779424833469       -0.02607266490776
C            3.15108285341478       -1.41690302531172       -1.99460757262615
C            2.29527898271181       -2.57459791909605       -2.13522907808176
H            4.20003608223091       -1.71445093282404       -2.06804057676213
H            2.92590981580876       -0.70103326309998       -2.78873393139514
C            1.55939746821580       -3.51422947195395       -2.21938195186227
H            0.93533573327036       -4.35350184125951       -2.29686496637467
Cl           0.68116171285445        2.21209359469622        1.36572761351130
Cl           2.01248237939250       -0.37431837237378        2.23541691177853
O           -0.46146736201189        0.72507435304361       -0.72078519798693
O           -0.52143316515844       -0.71140736921584        1.31955530451100
C           -2.63947049033677        0.39454547591500        0.02651381307759
C           -2.38315583384240       -1.02545998237242       -0.07135569890785
C           -0.86916427394982       -2.83312583832833        0.42841626929565
C           -1.82603607306985        2.59379672945200       -0.47506852269716
C           -3.04659461660187        3.15959386367478       -0.03923994550047
C           -3.85315967385950        0.93546377889693        0.50561275084855
C           -4.03335151607179        2.29436469207250        0.49256490182289
C           -3.19734746122897       -1.89661191481471       -0.82677419311681
C           -2.84281485330586       -3.21803829514117       -0.93865208002806
C           -1.67991036707165       -3.72723106133964       -0.30989739859719
H           -4.93446147168334        2.72216983821064        0.90492035862857
H           -3.43584109629291       -3.88284719229690       -1.54822109083697
N           -1.65525640171303        1.24469454256314       -0.37799797721825
N           -1.27003409300550       -1.53206016192787        0.52981454054012
C           -0.83021711097880        3.40832903047018       -1.02458245852879
H            0.08083112110765        2.95346752600972       -1.37356004407738
C           -3.21324781771678        4.54826215884886       -0.13063075999506
H           -4.13884281704728        4.98269972070116        0.21605167752781
C           -1.03134327710421        4.76588912129883       -1.11047205018561
C           -2.21770461390483        5.34020164080447       -0.65376837767113
C            0.29093384103455       -3.29053624944148        1.05719973847865
H            0.89321129399828       -2.60789533893279        1.63301323937830
C           -1.28697347253762       -5.06839581453231       -0.40351831201621
H           -1.90364387147126       -5.75092655853495       -0.96975193083795
C            0.64637945186459       -4.61779729332711        0.94643822978306
C           -0.13823096189077       -5.50796568321662        0.21737725302361
H           -0.26204979558421        5.39253129507769       -1.53410221380296
H           -2.35471896203151        6.40883574699485       -0.71697056466570
H            1.54304651684646       -4.96687790519543        1.43391117440042
H            0.15478625725407       -6.54420122884248        0.13997260204647
C           -4.89445093906082        0.06076705328418        1.13863492678173
H           -5.81058699584232        0.06542696385909        0.55051536018191
H           -4.54712150987445       -0.96132185909292        1.25028352546574
H           -5.13648549755517        0.45224797833256        2.12522373614081
C           -4.37949832417475       -1.39227857157472       -1.60049643513377
H           -4.38876105744777       -1.85353720798727       -2.58586659182447
H           -5.30833452636194       -1.66430581470247       -1.10164645602737
H           -4.35061317794530       -0.31378951845126       -1.72139173753160
