63
 energy: -105.898538337523 gnorm: 0.000689826745 xtb: 6.5.1 (b24c23e)
Si          -0.37532362478576       -0.58305998032574       -0.25288884990583
O           -1.93153542749261       -0.76325098995779        0.25960467720213
C           -2.75584520362422       -1.89343293681795        0.32785024673179
C           -4.09595229671955       -1.47335211826910        0.87834778167455
H           -2.28629157015319       -2.63350516103803        0.99282936409805
C           -4.70353906779526       -0.31901848624453        0.40117466556991
C           -4.74856038732514       -2.24034465805753        1.83316367957169
C           -5.94287656247435        0.06620402813642        0.87893850901019
H           -4.19197717282786        0.27442038768876       -0.34183838962893
C           -5.99264059512518       -1.85846571340189        2.30487933351463
H           -4.27879313003757       -3.13872213107004        2.20789755159856
C           -6.59150416714275       -0.70421349969604        1.82991892209086
H           -6.40791963192940        0.96723499527644        0.50541878921237
H           -6.49401933704982       -2.46175907907172        3.04797152194400
H           -7.56094642387327       -0.40514254665005        2.20136314895898
C           -2.96649426526023       -2.53989181880135       -1.05991485578946
C           -1.78969397156647       -3.25273737972761       -1.50089607453237
H           -3.80988672436655       -3.23318008990328       -0.99629858941679
H           -3.20429894073326       -1.75023604609882       -1.77656605687544
C           -0.79995382280982       -3.83991298580265       -1.82884095511157
H            0.06082234142393       -4.36039919324029       -2.12455064050628
Cl          -0.92027108110084       -0.05008465680634       -2.20311501114563
Cl           0.38467631375920       -2.17835271500070        0.89376257065110
O           -0.11870316031728        0.76091777051436        0.77037290167946
O            1.30675327643259       -0.32307092647417       -0.99855208729308
C            1.75175892664078        2.04184395641157        0.17047066619286
C            2.58931433635886        0.90524325704876        0.49535396614392
C            3.17444532693406       -1.35167551266763       -0.06754323217055
C           -0.49391529783096        2.86528343532357       -0.13962743727440
C            0.01087974078304        4.09649998773940       -0.61773659946542
C            2.27670417004953        3.26190502782119       -0.30446210351796
C            1.41591003966893        4.26147660074182       -0.68903512790843
C            3.62733249265973        0.95151044274153        1.45136911940421
C            4.42444400395771       -0.15001193650171        1.63069475176752
C            4.25135185321952       -1.31638938240833        0.84745173355048
H            1.81001402654570        5.17952962040973       -1.09739705902145
H            5.18925614434360       -0.14237940043188        2.39249550052692
N            0.39667180623427        1.90928004411688        0.25498048444879
N            2.37102869050058       -0.25755709549145       -0.17729791834144
C           -1.87048210267920        2.64883629143954       -0.05286186692534
H           -2.23336772959725        1.70871818369024        0.32703641749147
C           -0.90056902395770        5.08144734759306       -1.01893182039036
H           -0.51923021132157        6.02001039781361       -1.39209096444476
C           -2.73859478180351        3.64210825397923       -0.45318658346425
C           -2.25702460003651        4.85546897862249       -0.93879103615155
C            2.95985411041945       -2.48222729210009       -0.86359241989211
H            2.14041587071819       -2.47640785737290       -1.56310026998056
C            5.07625654906777       -2.44497852043467        0.95459584612711
H            5.89273692482418       -2.42480176360486        1.66079639390779
C            3.79433745061651       -3.56751673735562       -0.73941291900772
C            4.84918352135137       -3.55416814107470        0.17421589957603
H           -3.80249877994137        3.47486411756603       -0.38718378590250
H           -2.94998303429985        5.62150568086659       -1.25177118871559
H            3.63275251946127       -4.43948083222214       -1.35423272552581
H            5.48932947538236       -4.41848206114769        0.26477920569659
C            3.75040873022083        3.45742192301408       -0.50696536714279
H            4.15591535571905        4.11819899810248        0.25772036091501
H            4.29064445431572        2.51663340503767       -0.47876606504553
H            3.92235706693886        3.92794225384431       -1.47266097082303
C            3.79674524258641        2.13909933592595        2.35196581933879
H            3.78355484390821        1.80519679757176        3.38810495962660
H            4.75571977280486        2.62301088244476        2.17520506742516
H            3.00100274812572        2.86412024378533        2.21453711567134
