63
 energy: -105.907655190353 gnorm: 0.000497810907 xtb: 6.5.1 (b24c23e)
Si           0.20430053693369       -1.11117664040072       -0.23468404737166
O            1.50939581469308       -0.23937080509821        0.19206547321092
C            2.55708471520524       -0.49977561646544        1.09046561868446
C            3.69366467531986       -1.24268047502103        0.43510505890249
H            2.17622598167224       -1.09557226363133        1.92863024579666
C            3.89389301780343       -1.18196209494838       -0.93526086490359
C            4.56998981912732       -1.98414447573875        1.21751389051056
C            4.95216231104876       -1.85591640758132       -1.51882866035492
H            3.20576926659373       -0.61734882194205       -1.54387749221637
C            5.63179255820466       -2.65121027471997        0.63516582499618
H            4.40976931143236       -2.04655478410179        2.28438335176452
C            5.82562654987128       -2.58848206246631       -0.73488996425460
H            5.09208363845466       -1.80979133096175       -2.58889911212012
H            6.30593805820017       -3.22843599616954        1.25090622491847
H            6.65165699814137       -3.11525735154620       -1.18970548000749
C            3.04780038890621        0.86163032681793        1.62440881344347
C            1.99610125984643        1.51222597776082        2.37366142621492
H            3.91634804594791        0.69987120786868        2.26711711237021
H            3.34090760127488        1.48816330908236        0.77790555096967
C            1.08782164429412        1.99868953279975        2.98184830003884
H            0.31309143656694        2.43659932977053        3.53613484699671
Cl           0.05261480767665       -2.23030290431105       -1.94939404145733
Cl           0.59721016257669       -2.81939672864027        1.02833705830164
O           -1.14505788534781       -0.77745783397823        0.77873939186996
O           -0.31515374233986        0.27150143647452       -1.31698549082829
C           -2.55850785639546        0.92162381580684       -0.02999782001812
C           -1.43105570406226        1.82756931499694       -0.00079330815918
C            0.75127905855922        2.29078911662802       -0.87376339740567
C           -3.31271954507104       -1.35999002584358        0.18359552253313
C           -4.61217217851245       -0.97917111102009       -0.22651437368404
C           -3.84336636350070        1.31784139854980       -0.45930256387167
C           -4.84301795762328        0.38091068969850       -0.54730259681600
C           -1.40988051045768        3.03383028083920        0.73410483168156
C           -0.30387148651697        3.84100583358164        0.66619737111312
C            0.79523013503931        3.51167625053337       -0.16334639273769
H           -5.81674039384307        0.66885074687106       -0.91320060837860
H           -0.25068209876923        4.73604012300029        1.26705254474244
N           -2.35530000436731       -0.38979024075487        0.28884369395914
N           -0.33617533476250        1.48590904342172       -0.73156546072506
C           -3.03366018080403       -2.69349272409245        0.49155332500251
H           -2.04573620521823       -2.97525804309611        0.81574298152339
C           -5.60135929789834       -1.96569406148307       -0.32537160002562
H           -6.59199207958663       -1.67642339883086       -0.64263327882486
C           -4.03226443830566       -3.63808744128261        0.38484780411152
C           -5.31425481541826       -3.27850926835052       -0.02398400091729
C            1.80088199786299        1.93183575205542       -1.72569190128617
H            1.71994676594638        1.01517866039604       -2.28567238891055
C            1.93292046152248        4.31943986082485       -0.29131472073954
H            1.97778145115588        5.24434326811262        0.26344608751012
C            2.90011002550937        2.75201482404954       -1.83575548579536
C            2.97391746795003        3.94047939776383       -1.10846764603573
H           -3.81186992864157       -4.66689024809122        0.62239188626600
H           -6.08392766367507       -4.03087521806163       -0.10344030783595
H            3.71261138344692        2.47240086286959       -2.48908232092990
H            3.84845121474111        4.56723488865149       -1.19504230394036
C           -4.11740282017065        2.71395189876513       -0.93576903076320
H           -4.71783885204696        3.25612769715209       -0.20680665732338
H           -3.20075193259741        3.26581043829010       -1.11853659736014
H           -4.68670402677676        2.67110907186951       -1.86226382865007
C           -2.52207417811229        3.38492379404415        1.67758490452698
H           -2.10259224612118        3.67886371834905        2.63764381795239
H           -3.09361960227723        4.23185546079895        1.30154627185889
H           -3.19403223230431        2.54681332013541        1.83421351287735
