63
 energy: -105.905230965797 gnorm: 0.000660927269 xtb: 6.5.1 (b24c23e)
Si           0.33592123039890       -1.18612730139434        1.18854716141736
O           -0.81829836321453       -1.96824512116290        0.36708709600773
C           -1.13577052475975       -2.04642855526503       -1.00709038690927
C           -2.48466860562588       -1.41039812255226       -1.22347094611157
H           -0.38035361850921       -1.51195892893600       -1.58769622691649
C           -3.54944928369210       -1.74214885395332       -0.39582871057825
C           -2.67017078796960       -0.46785899324217       -2.22510460265865
C           -4.78573496866422       -1.15119695133312       -0.58026294272746
H           -3.39296462177832       -2.44936631496900        0.40368680070607
C           -3.90803825776767        0.12258437907124       -2.40893520985875
H           -1.83990869013289       -0.19553234026155       -2.86209315339430
C           -4.96898249885470       -0.22182610099453       -1.58978369303562
H           -5.60929379079020       -1.41529648531606        0.06619178327641
H           -4.04386311626577        0.85312299512647       -3.19255252122753
H           -5.93512791666259        0.23882832411161       -1.73386621994523
C           -1.12064613232601       -3.52841777061079       -1.42102152990358
C            0.22886635162807       -4.04346626726297       -1.32798969421046
H           -1.49189308845021       -3.62171363354807       -2.44515463889615
H           -1.77206506411992       -4.09104573664661       -0.74885028430820
C            1.36466374718836       -4.40547805608678       -1.22394558027980
H            2.34897345732495       -4.75447466713965       -1.12639290232576
Cl          -0.48724414954886       -1.91956097660532        2.99791396445064
Cl           2.25903096875858       -1.75673209763187        1.68992187601927
O            0.98261313001422       -0.47840373900656       -0.44725790492486
O            0.03700017948720        0.43484377639359        1.68451133836675
C            1.59144266311426        1.73133466752589       -0.13284951659701
C            0.17488574250683        2.01973441579293       -0.04239442806735
C           -1.94236310220551        1.42717779958671        0.95123296556305
C            3.23207407644789        0.06572096265387       -0.66640867113193
C            4.26178049273210        1.02869328352000       -0.55640358539643
C            2.60194881926487        2.70472249224104        0.02003106693040
C            3.91182450927723        2.34324717865708       -0.16299240554209
C           -0.46560465146498        2.94523144150696       -0.89083157600424
C           -1.82887223467435        3.09484462320529       -0.81504845044383
C           -2.60292106606658        2.35732950421120        0.11411820408573
H            4.69755967301776        3.06466526904887        0.00179789891114
H           -2.33392478675076        3.76406323569781       -1.49448942375699
N            1.95149517316389        0.44683634420489       -0.39989776371440
N           -0.58583379133605        1.30622472132195        0.83828399088990
C            3.52372721155738       -1.24016029988586       -1.07708619316529
H            2.71912342912811       -1.95095935963202       -1.17690783639428
C            5.57913797658223        0.63262261458059       -0.82566820120051
H            6.36966396482039        1.36148633422155       -0.72815100627201
C            4.82603626589239       -1.58863329201022       -1.34725175189129
C            5.85678289236232       -0.65796020089677       -1.21148628118352
C           -2.66608130047899        0.68073230641282        1.88257628683317
H           -2.15679219486323       -0.01782522206586        2.52546213805429
C           -3.99040417501107        2.49853181680170        0.23155189561002
H           -4.49518326495919        3.20342667819887       -0.41165458032415
C           -4.03101015919248        0.85370110416834        1.97753556032818
C           -4.69530156591745        1.75741469094507        1.15391406232412
H            5.05360581204101       -2.59327623944123       -1.66804251691765
H            6.87456117280352       -0.95299831092034       -1.41630310139661
H           -4.58417922010140        0.27907802414390        2.70370152687326
H           -5.76419890938640        1.87922454329439        1.23976321865525
C            2.27276050220406        4.09080239396385        0.48827732014474
H            2.50164783493618        4.82265226071137       -0.28463053598299
H            1.22765163211892        4.18223198858186        0.76665637384515
H            2.88370005332956        4.32919398116489        1.35714041744407
C            0.29192892720930        3.69247499364987       -1.94871013742568
H           -0.27912903409187        3.68686303192461       -2.87482549486103
H            0.43108149171956        4.73172038017945       -1.65509350801027
H            1.26558455460131        3.25076538194953       -2.13746483284378
