63
 energy: -105.904019150103 gnorm: 0.000608770551 xtb: 6.5.1 (b24c23e)
Si          -0.18035807670579       -1.55552371509230       -0.51878025375475
O            1.42373586337107       -1.38256241230829       -0.37367616911960
C            2.50178228578384       -1.49198514004370        0.52628339058744
C            2.39283381940241       -0.42708277191779        1.59168071465803
H            3.38395827956292       -1.28157368306968       -0.09855509057963
C            1.30021667113374       -0.39041547067179        2.44914962047742
C            3.36870825515012        0.55556435703345        1.69570670554584
C            1.17904847844879        0.62544981552420        3.38039973448378
H            0.53598677975207       -1.14819003283733        2.37931562380995
C            3.25291061540322        1.56360277820620        2.63652490674697
H            4.22293505947261        0.53170440214131        1.03370945185380
C            2.15381301243587        1.60436150737994        3.47698396707046
H            0.32149011913954        0.64850992680668        4.03667688602513
H            4.02154459523915        2.31922708508588        2.71104059341851
H            2.06177579178857        2.39248097721664        4.21103097049618
C            2.67257143507609       -2.89389014178550        1.13356397716322
C            2.82978758803277       -3.87707571390021        0.08367973338223
H            3.55973411523097       -2.88070710427251        1.77320588813253
H            1.80057848174528       -3.15181921284799        1.73562542813213
C            2.94638058461202       -4.64764755105496       -0.82366478693976
H            3.04107849096966       -5.34713628546572       -1.59913029260011
Cl          -0.95423786500591       -2.55581499675773       -2.12636763363621
Cl          -0.51552934772947       -3.18811184552508        0.85044538313854
O           -1.12793312191931       -0.61467807777977        0.57450047811986
O           -0.18941574574401       -0.09468442950657       -1.66412178943461
C           -1.66094656662232        1.55075068538411       -0.16953477634522
C           -0.24691077080940        1.80482005362436       -0.32904862265011
C            1.74699647471318        1.18461447967312       -1.50262453368248
C           -3.36863864393009       -0.10567199337946        0.22831150331626
C           -4.37279420308651        0.84927556813113       -0.05755640167238
C           -2.64686440894053        2.51715790498205       -0.46280625588725
C           -3.97215527938211        2.16379004016499       -0.40255850396362
C            0.44119940092475        2.84948481428674        0.32498982141145
C            1.76512410408926        3.05992175541339        0.04152964812892
C            2.44559739724995        2.26125973669910       -0.90901787874575
H           -4.73166764387056        2.88364893869436       -0.66673919774212
H            2.31341341722443        3.82612133627529        0.56743935187123
N           -2.06288554435214        0.29626048397961        0.18418010051514
N            0.44064393153547        0.98811707378155       -1.17343474044293
C           -3.71705580426096       -1.41510403500744        0.56630034771363
H           -2.94886193644855       -2.13318938088427        0.80016287789957
C           -5.71352625677602        0.44775277549153       -0.00963931048347
H           -6.48038714730155        1.17409870132001       -0.23315492600665
C           -5.04757624916822       -1.77492066935768        0.60662431058034
C           -6.04602666083293       -0.84846314935824        0.31683105542221
C            2.38694420167270        0.35117028485662       -2.42679262190532
H            1.83131186591247       -0.45904971341588       -2.86815145432956
C            3.78990139349632        2.45810487615767       -1.25328079300073
H            4.32751749806271        3.27432428149309       -0.79440298416929
C            3.70650374189493        0.57535023000952       -2.74382394009456
C            4.41193175666637        1.62568215993654       -2.15530218490166
H           -5.31205262918083       -2.78780778913348        0.86644368972163
H           -7.08256309124158       -1.14709578732947        0.35061269678630
H            4.19990068654412       -0.06853933613658       -3.45547131659864
H            5.44858887499040        1.78420838224682       -2.41128668065479
C           -2.28164018633297        3.88924617985692       -0.94693783282745
H           -2.42071961686938        4.62390544174758       -0.15573233348658
H           -1.25256675234892        3.93570097961520       -1.28851772658106
H           -2.93453484498367        4.16693369835923       -1.77152081684643
C           -0.21588630692823        3.64473249329053        1.41295774912419
H            0.39650585639202        3.58031667321163        2.31119517673164
H           -0.28856353205008        4.69497819644640        1.13510778485660
H           -1.20644569029444        3.26633636431641        1.64442928176053
