63
 energy: -105.908759543032 gnorm: 0.000898420671 xtb: 6.5.1 (b24c23e)
Si          -0.29851818088317       -1.58621899560426       -0.28957835925435
O            1.29966060828018       -1.38015345124251       -0.09120044591183
C            2.21688720618206       -1.74414913265911        0.91931533309504
C            2.51643609461757       -0.47136461481142        1.68001657942686
H            1.73799649184026       -2.46662019562147        1.59308721188563
C            3.68312305388501        0.26245191362633        1.52261654641707
C            1.51185884437114        0.02935262192124        2.50280879858179
C            3.84408241001731        1.46973252955948        2.18257110576986
H            4.47732282055073       -0.09639328042884        0.88682406871372
C            1.66955612616105        1.23816421254961        3.15328506686155
H            0.59997455372231       -0.53713196479355        2.62072739332541
C            2.83908722186424        1.96346227205829        2.99411579947053
H            4.76055872411600        2.02771034632511        2.05609944751542
H            0.88093016978391        1.61099728655869        3.79093849422177
H            2.96859032556528        2.90664059438863        3.50572041558325
C            3.42507170325427       -2.41188103688091        0.25332044999391
C            3.00226387652944       -3.64257760344308       -0.38393499229758
H            4.18287755299949       -2.62525219013329        1.01137904015001
H            3.83905904178484       -1.74389327936057       -0.50658648885456
C            2.59585121364792       -4.63718953396726       -0.90945177741219
H            2.25732494023917       -5.51719420159874       -1.36823240732142
Cl          -1.14000898152774       -2.69901035850819       -1.78513834776130
Cl          -0.57521998345887       -3.10260773130987        1.22098158121104
O           -1.23974539676723       -0.55511378572359        0.72200620740177
O           -0.25590805519515       -0.24374554348816       -1.54334889718908
C           -1.73835556560492        1.53875420709094       -0.22410082466806
C           -0.31866666030340        1.76736741210271       -0.38115455965684
C            1.69459083435331        1.02306148505871       -1.44790520955304
C           -3.46803011678846       -0.06407537218563        0.28854330950944
C           -4.45949388545742        0.86930109250510       -0.09523368058265
C           -2.71187690097865        2.48186049360280       -0.61729562544768
C           -4.04134957809221        2.14574286578042       -0.54545134506068
C            0.36966727419412        2.85793378316455        0.19299194321084
C            1.70422913469195        3.02346079052467       -0.07195859992895
C            2.39633601358247        2.13555428940861       -0.92971905372607
H           -4.78995046374766        2.84632813484946       -0.88254813262840
H            2.25163507442148        3.82469461134379        0.39993564644565
N           -2.15915831281000        0.32553385593679        0.23738145391569
N            0.37774717604949        0.87418807850870       -1.13666552108994
C           -3.83118018631292       -1.33929436413417        0.72714134910094
H           -3.07171568292769       -2.03999525840528        1.03140714211398
C           -5.80393622903869        0.48143965319341       -0.03692293022913
H           -6.56168458870703        1.19095027198198       -0.33362164025485
C           -5.16459055027755       -1.68684653245515        0.77258267131894
C           -6.15111927884204       -0.78110453759810        0.39032683230084
C            2.34393782553158        0.10407107188922       -2.27962432679136
H            1.78802794932193       -0.73449548926533       -2.66440292189058
C            3.75210238728500        2.28286822509398       -1.25276893358090
H            4.29083146229053        3.12781770266253       -0.85132837726222
C            3.67500164053630        0.28125805140243       -2.57902796263757
C            4.38306677214027        1.36748400844054       -2.06320967577238
H           -5.44123374630650       -2.67357940972435        1.10904721592965
H           -7.19018801978000       -1.06993760840149        0.43082723158972
H            4.17539860362338       -0.42886982933572       -3.22005351840710
H            5.42849675122834        1.48824061363492       -2.30417196009946
C           -2.32893091236016        3.80270169860417       -1.21657180416463
H           -2.47366161556194        4.60595157122795       -0.49601510027033
H           -1.29495682440219        3.81132295861390       -1.54636991317572
H           -2.96851278518241        4.01005031799107       -2.07168872577531
C           -0.30012187853236        3.76129416884954        1.18482920836984
H            0.30705108472851        3.80413731236119        2.08718261097741
H           -0.37990535661197        4.77384894776548        0.79302059523676
H           -1.28951322693217        3.40286685050227        1.45024630901154
