57
 energy: -108.002878302336 gnorm: 0.000523447911 xtb: 6.5.1 (b24c23e)
Si           0.21474609177572       -0.30046290370365        1.24399962663671
O            0.96796050414648       -1.52876454841995        0.53449414236584
C            1.61964522007932       -1.71579222227464       -0.69781503934295
C            3.09002684566807       -1.96667743189863       -0.47380196730596
H            1.49101233376088       -0.82729212911612       -1.32017552075687
C            3.54856403792692       -2.46877347315507        0.73532816934683
C            3.99665438298784       -1.70700659564631       -1.49354335119625
C            4.89944774044113       -2.70413255775025        0.92337253523155
H            2.84158746508766       -2.65787695702589        1.52840318777341
C            5.34526256412687       -1.94812622876611       -1.30576361529557
H            3.64218058381197       -1.30630530737146       -2.43268488432101
C            5.79961988881222       -2.44720531008682       -0.09612879051470
H            5.24925195421140       -3.08897665401468        1.87003295163714
H            6.04504061753470       -1.74099330380112       -2.10278335320569
H            6.85403497206353       -2.63085719441918        0.05128855537705
C            0.96608869030548       -2.92423092344224       -1.40105667632663
C           -0.29914493488919       -2.55950009368399       -1.99638948189910
H            1.63877652524808       -3.29846293120841       -2.17705014287748
H            0.80921992991618       -3.70555800200509       -0.65379130189201
C           -1.33648328734805       -2.22386102666449       -2.49099942723386
H           -2.24773305260909       -1.95143912615880       -2.93407864491272
Cl           1.18911184364234        1.31506674295047        2.13701853330645
Cl          -0.02426622580643       -1.33648903229908        3.03625474463273
O            0.21744251102546        0.68427679538243       -0.42254421052757
O           -1.48472036193801       -0.15188651110301        1.18666498942089
C           -1.40085407236462        2.32093682138121       -0.29039147909063
C           -2.42539989043959        1.33190832549933       -0.39950942107027
C           -3.15109942613328       -0.95424839215518       -0.23043873285822
C            0.91837397342718        2.89768694002408       -0.37490413130154
C            0.61098682665370        4.27140871977525       -0.20861432125019
C           -1.72476008161538        3.69112510369271       -0.16080361710188
C           -0.75675425685821        4.63854099065713       -0.08612930316405
C           -3.60708999488437        1.63834273556122       -1.10695934237698
C           -4.53909512325065        0.68811615609098       -1.38120732416389
C           -4.31668634497772       -0.66202202483158       -0.98532908981841
H           -2.76294031127477        3.95769012999318       -0.04860050821313
H           -1.00571714475968        5.67592362081977        0.06986494765477
H           -3.72674497395945        2.64184040097157       -1.48168414267181
H           -5.43242462006857        0.92831436725402       -1.93479413888143
C           -5.20979584482529       -1.68197252934913       -1.32593899538216
C           -2.94138696380258       -2.29310486649239        0.13622328187152
N           -0.08901704507106        1.97356232358623       -0.37065368511013
N           -2.29844705224690        0.06654845194272        0.11144508881998
C            2.27227940583627        2.55411674509607       -0.55324805975696
C            1.63830038615750        5.22095785935573       -0.16885490118069
C            2.95274579238372        4.84256950698445       -0.30505150640577
C            3.26720630822142        3.50328420782701       -0.51249709899705
F            2.64235380551472        1.29174736953634       -0.81132391097119
H            1.37584766909448        6.25794048966554       -0.02814384928020
H            3.74202172299144        5.57594751445655       -0.26412126466130
H            4.28758130148395        3.18114694127798       -0.64504079692948
C           -3.84165786783988       -3.28544601061382       -0.20103607133617
C           -4.98085097379844       -2.98220948771093       -0.93167888048052
H           -6.08577873509575       -1.42838503046448       -1.90285359432723
F           -1.84894639094441       -2.67458050962563        0.80384250947655
H           -3.62495813518878       -4.29469953472223        0.10922717102916
H           -5.67657078234612       -3.76372540979948       -1.19207486019920
