57
 energy: -108.002518998895 gnorm: 0.000235624732 xtb: 6.5.1 (b24c23e)
Si          -0.42733950919004        0.89365291756074        0.82196078665914
O            0.31773533345722        1.71685025397503       -0.34474924292923
C            1.50068744041057        2.47146485326505       -0.34513019345901
C            2.61944321678046        1.65994451175016       -0.95305183667534
H            1.76324847021353        2.74541341969553        0.68520983132420
C            2.33544580437272        0.57628425981613       -1.77343523392546
C            3.94466099919575        1.98365342342129       -0.69119212734575
C            3.35983758030045       -0.18099293248774       -2.31443790447601
H            1.30315756069955        0.32995368807610       -1.97174719432771
C            4.96768525209149        1.23125174021938       -1.23950109721402
H            4.17032302142786        2.81899958941115       -0.04439174243792
C            4.67834473505648        0.14469753333063       -2.04914079590929
H            3.12819390939522       -1.02892664330963       -2.94350241440588
H            5.99586964150055        1.48854836547674       -1.02934495648639
H            5.47840226679391       -0.44689721495486       -2.46966994919156
C            1.25009082488074        3.75020182013156       -1.16670406976095
C            0.29848034724267        4.60424769218968       -0.48925309540254
H            2.19523266359343        4.28083045586582       -1.30715375578715
H            0.85079923498516        3.45958745311731       -2.14157945512586
C           -0.49120508571346        5.27704834223351        0.10602772137034
H           -1.18466302340658        5.87417217003963        0.61791368987958
Cl           0.41118420746255        1.80230495098132        2.54453096762640
Cl          -2.36732712792080        1.30214723367029        1.46604621717227
O           -1.11857115637268       -0.06340713875050       -0.62483664164304
O            0.21823772506551       -0.59810017950763        1.40102891337263
C           -1.77659590850661       -2.15281624423248        0.07655246787151
C           -0.40186636279001       -2.53197198226751        0.19668025500498
C            1.90905266621936       -1.96783795063284        0.54495813716559
C           -3.39686625613941       -0.54764774389795       -0.63845479475053
C           -4.45441467542108       -1.42827770857675       -0.29732778019995
C           -2.81468267468778       -3.06648437180100        0.36123572043134
C           -4.11714043400223       -2.70805375838974        0.22270036451212
C           -0.01263278460503       -3.81750449573523       -0.22927373898950
C            1.29807648190707       -4.16247192956574       -0.33264872141412
C            2.31036187245115       -3.22397407330662        0.01728772900034
H           -2.54624420636479       -4.03038377829781        0.76241604437336
H           -4.91101142056584       -3.38305926196859        0.49962136063053
H           -0.78560915043695       -4.49785427555655       -0.54827477489136
H            1.59146386117246       -5.13211776895895       -0.70054832865480
C            3.66617294696561       -3.53049160963233       -0.12454768561383
C            2.93024887037775       -1.09611579362126        0.95447740114401
N           -2.10690728217203       -0.92396438104871       -0.39680281048908
N            0.57008488335582       -1.67960895300185        0.64878481845961
C           -3.73484672085195        0.68097652965610       -1.23844455359709
C           -5.78320434414903       -1.03194147164043       -0.48821317459269
C           -6.07873418438165        0.19846553044539       -1.02550306604878
C           -5.04930272653067        1.04828504543124       -1.41833735446553
F           -2.79466710973737        1.51407611030062       -1.69584566376325
H           -6.57059024220244       -1.71322263551642       -0.20566166484594
H           -7.10372508217779        0.50490514935313       -1.16031518634460
H           -5.25696499888205        2.00485069088252       -1.87027337844847
C            4.26577850181248       -1.42282994320498        0.81971696593960
C            4.63933450940048       -2.63764412933767        0.26758793654262
H            3.93547991418104       -4.48959051883256       -0.53889454829648
F            2.66452653776337        0.09498438022446        1.50240111434450
H            4.99741328937289       -0.70524716665813        1.15312754751091
H            5.68384289730403       -2.88134605582851        0.15941594157134
