57
 energy: -108.005038708004 gnorm: 0.000714366346 xtb: 6.5.1 (b24c23e)
Si          -0.36873179529817       -1.44986452042875       -0.05308979233654
O            1.18495258393455       -1.05316153289583        0.24132700849596
C            2.08812658580682       -1.34888178152369        1.28590895608045
C            2.42647710823011       -0.01304581442572        1.91120000461506
H            1.57758072582814       -1.98180241458801        2.02396952923153
C            3.65844516060704        0.61258707143077        1.78846373137287
C            1.39457346545890        0.65628385060778        2.56396999505936
C            3.85426472641126        1.88072500427454        2.31149749636638
H            4.47876805619358        0.12067783772729        1.28942863320459
C            1.58772284966232        1.92441715748460        3.07662331013912
H            0.43629965101396        0.16701192072864        2.66212145626641
C            2.82142813067810        2.54240502336699        2.94985443342658
H            4.82131401300969        2.35303712720545        2.21488138466992
H            0.77740483512639        2.43048326547868        3.58120289715062
H            2.97691698616161        3.53250553560662        3.35305421691896
C            3.27875662375893       -2.12385715674274        0.70878619036775
C            2.80295422068453       -3.35282349213708        0.10553119913969
H            3.98395239302510       -2.34831136413121        1.51307806406054
H            3.77630141389703       -1.52396960998397       -0.05900082809795
C            2.34405221013112       -4.32720215056592       -0.41383234529403
H            1.95149420173812       -5.19225191653339       -0.85785261830864
Cl          -0.87643282020473       -2.79231921221094       -1.47693324902773
Cl          -0.70252195545511       -2.65279920326549        1.65846687089881
O           -1.52583533030984       -0.38766423860680        0.64711974451959
O           -0.26253270937064       -0.18136909957088       -1.47019301551756
C           -1.61662662986354        1.80668821148143       -0.22758677908968
C           -0.21401643453810        1.89872451750016       -0.47805981218448
C            1.75594028155180        0.97127077543078       -1.45869415522394
C           -3.59935857565036        0.46789060270468        0.00563115474157
C           -4.41765576440158        1.61636052579226       -0.15255147233840
C           -2.42276627873521        2.96003526904296       -0.32174927727903
C           -3.77892894038629        2.88435205654023       -0.26995334129785
C            0.52814717123775        3.03378256620624       -0.08004639204464
C            1.86212944663356        3.11505101689224       -0.31033514100308
C            2.52680294220855        2.07494413934351       -1.01599419458666
H           -1.93490836537317        3.90431229091221       -0.50128021778479
H           -4.38941008456607        3.76818434566909       -0.35911458223471
H            0.01984931099597        3.80128507079649        0.48020416203493
H            2.43829837588855        3.95374204466248        0.04509055326126
C            3.90208159183678        2.11656666912499       -1.27049523369745
C            2.41360405961587       -0.03044252823863       -2.19954317935797
N           -2.23482353459762        0.61638093892964        0.05395858640841
N            0.42541121147391        0.91107043376365       -1.15731825740251
C           -4.24450625319457       -0.77306278485231        0.12385041569928
C           -5.80904200718712        1.48868778721606       -0.18371013323863
C           -6.40843560435163        0.25425001976266       -0.05839062335354
C           -5.62186213138345       -0.87819066027277        0.09428806467910
F           -3.55302095082958       -1.91020198828272        0.25019366149992
H           -6.40571248562978        2.37931062508877       -0.30574874662571
H           -7.48254504153631        0.16281486261220       -0.07944275862847
H           -6.05849224567833       -1.85971600853533        0.18659188505680
C            3.76965573538632        0.03006483733711       -2.43529296238918
C            4.52129495416835        1.09976879373124       -1.95874937425384
H            4.46641102222198        2.96310229515189       -0.91201454830764
F            1.74852611511407       -1.06157046707265       -2.72592277458194
H            4.22643563970724       -0.76893803466577       -2.99789095568297
H            5.58338513914252        1.12964748992551       -2.14343084419668
