57
 energy: -108.003001485157 gnorm: 0.000868273482 xtb: 6.5.1 (b24c23e)
Si           0.51427009919692       -0.21610080377791        0.59730140225249
O            0.98533205766824       -1.17866343926417       -0.60557048087477
C            1.62243113894346       -2.43255663482925       -0.54069804379679
C            3.06715371312914       -2.28807828162406       -0.13724292362677
H            1.09967186972449       -3.06332117134076        0.18785770216260
C            3.80030072267914       -1.19480540204466       -0.57799101953581
C            3.67569001570432       -3.23970652685575        0.66839554051730
C            5.12613297459093       -1.05196814356807       -0.21088960779590
H            3.31731746074402       -0.45006710810651       -1.19152061500235
C            5.00436020144224       -3.09919943424853        1.02766188058205
H            3.10224872597536       -4.08268969243046        1.02526280629159
C            5.73164148169380       -2.00541312678697        0.58960130554740
H            5.68699216763281       -0.19286952424345       -0.54928689284758
H            5.47088357161576       -3.84067325177633        1.65971921033700
H            6.76686152555012       -1.89333591255547        0.87788006944498
C            1.52001565798256       -3.06338282577024       -1.94166412943717
C            0.14007341735270       -3.26087835498180       -2.32692274183379
H            2.04698467249430       -4.02071110728018       -1.93937404503781
H            1.99952932344339       -2.39135111820316       -2.65757023076196
C           -1.00816138724036       -3.40560757544489       -2.63200191567956
H           -2.01086947599774       -3.53602249268535       -2.91187211563842
Cl           1.69534768595715        1.28838536546739        1.45448052531258
Cl           0.81540730933726       -1.48355172321275        2.27793628486353
O            0.06870173296690        0.93596081078877       -0.78914391913981
O           -1.14753806795475       -0.21621551108835        1.03483532222773
C           -1.57947774890817        2.38254498006064       -0.06750166161913
C           -2.52943298835064        1.31697361897299       -0.10358912193861
C           -3.00694518283341       -1.03797710018912       -0.11720525951714
C            0.61331890955863        3.18658123871247       -0.57788915756471
C            0.26444527361929        4.49064448898357       -0.14497954573620
C           -1.95856934455831        3.68823337231584        0.31862222627756
C           -1.06156541130452        4.70652140085841        0.32158089945340
C           -3.84925238354506        1.57681009316996       -0.52816205561541
C           -4.72419916826921        0.56671888272854       -0.77501944506774
C           -4.30948625204687       -0.78787582236811       -0.62437189513788
H           -2.96289011213325        3.83806024590953        0.68040030591483
H           -1.33701462787204        5.68828213002423        0.67219947878340
H           -4.12732756372039        2.60029986165033       -0.72056071431191
H           -5.72382822101603        0.76925214977329       -1.12400257064142
C           -5.15505705114796       -1.85136749827786       -0.95124445305227
C           -2.62984821175688       -2.38009754521936        0.04859655190422
N           -0.30044434456616        2.17584579500174       -0.47909068351940
N           -2.19858443304278        0.02381327447333        0.20170636787275
C            1.90167611964285        3.00257569374396       -1.11585292205795
C            1.20998219118074        5.52153125338537       -0.19150006490488
C            2.47664699648747        5.29244736010165       -0.67407915514516
C            2.81521431083647        4.03128763128415       -1.15418949613452
F            2.27562019950038        1.83348232245448       -1.64881086442976
H            0.92297027155102        6.50065630557212        0.15925957906019
H            3.20625118218937        6.08602521480965       -0.69745741587991
H            3.79239327668634        3.83470925879305       -1.56537120594081
C           -3.48410470636744       -3.41789595691291       -0.27132445022972
C           -4.74933030574325       -3.15679573594091       -0.77614268248709
H           -6.13683038274212       -1.62871338725528       -1.33962844821664
F           -1.42441812853063       -2.72096545729892        0.51565564694088
H           -3.13273837749194       -4.42670729716358       -0.12354011785854
H           -5.40787537993252       -3.97344678629245       -1.02579203773208
