57
 energy: -108.003972005049 gnorm: 0.000688572042 xtb: 6.5.1 (b24c23e)
Si           0.30976972460405       -1.20375698450031        0.84205779496326
O           -1.28823472272939       -0.87246986909641        0.72257791075136
C           -2.36568623109019       -1.69704283638860        0.32977587028819
C           -2.64758867703800       -1.46454047505031       -1.13392147762511
H           -2.08895445638342       -2.74463071733676        0.48597901689781
C           -2.93138845765003       -0.18467327146840       -1.59295715254781
C           -2.57521364193923       -2.51032983064453       -2.04353705834408
C           -3.14502879832426        0.04726230837606       -2.93952851637836
H           -2.97729331783254        0.63629135889083       -0.89186413397726
C           -2.79602512358408       -2.27891978322441       -3.39016398461472
H           -2.32800536459393       -3.50086335617351       -1.69397583369756
C           -3.08103811272884       -1.00139240965720       -3.84146131842836
H           -3.36171478851127        1.04858066892810       -3.28472733726102
H           -2.73654493348766       -3.09828211204130       -4.09116606013521
H           -3.24777083454943       -0.82134299851328       -4.89371667219275
C           -3.58628611507924       -1.36503693661412        1.20550174753672
C           -3.27910451872815       -1.61458955753814        2.59797383918844
H           -4.42212626311210       -1.99366206784879        0.88732583193685
H           -3.86375927246673       -0.31534165979292        1.07336600482190
C           -2.95752198482690       -1.82739379572300        3.73028343639242
H           -2.68243132286731       -2.01080094675218        4.72549809714305
Cl           1.19775019576454       -1.72268229980478        2.59149663376548
Cl           0.28478555629878       -3.13083417108198       -0.04039740968139
O            1.21171380083788       -0.73918262245420       -0.54706564941980
O            0.51951135029667        0.57005702944407        1.43283910546343
C            1.43550229257393        1.58913946053804       -0.90732931152524
C            0.15112143314485        1.93485308361932       -0.38921674530300
C           -1.43602398303211        1.82236804147440        1.39597267104231
C            3.34009879003464        0.12426680341100       -0.93725447464221
C            4.12615880469523        1.12275931991441       -1.56810678623332
C            2.19444299773843        2.56384530167286       -1.58996113021180
C            3.49088740465729        2.34439916136124       -1.93253167188884
C           -0.69874247297212        2.83236541770310       -1.07659077876232
C           -1.90875053410981        3.17924276494770       -0.57118941223343
C           -2.32061217852932        2.68449876041524        0.69874857474077
H            1.73636171462660        3.52106590001850       -1.77874118536082
H            4.06805259924350        3.10046089182536       -2.43969039213604
H           -0.39091739855090        3.17877686358744       -2.04952678272908
H           -2.57895492610645        3.82056694006975       -1.12132140016554
C           -3.56006495451457        3.01737292953085        1.25651408150431
C           -1.82621728907396        1.38183996654561        2.67569689748048
N            2.00389527309157        0.35670302133170       -0.71788996842719
N           -0.25383394642340        1.45892563591233        0.81757764988829
C            3.98212796612300       -1.07240991638306       -0.58155029912510
C            5.48215502160305        0.89590298685947       -1.81950967099532
C            6.07671578229656       -0.29523835177979       -1.46493846267096
C            5.32296841211938       -1.27933020670011       -0.84211936273281
F            3.32921877793942       -2.05471525725417        0.04666238690491
H            6.05431016091815        1.67409596182594       -2.30023267616441
H            7.12231487051335       -0.46607526130359       -1.66505570803552
H            5.75969575887912       -2.21814798238786       -0.54183825340033
C           -3.05095156146716        1.72478645325960        3.20612340270929
C           -3.92906307120057        2.53103522883236        2.48984317861063
H           -4.22068574130877        3.66310845885986        0.69864354035304
F           -1.01155216679144        0.65202357767542        3.43959023890993
H           -3.30735316236236        1.34893136221074        4.18297734301951
H           -4.88930536402714        2.78148801847251        2.91166882273087
