57
 energy: -108.005133826746 gnorm: 0.000486922356 xtb: 6.5.1 (b24c23e)
Si          -0.00773302850632       -0.98946792193780       -0.20902915179521
O            1.29052739218151       -0.16635616588062        0.35592051736282
C            2.29258631559510       -0.58055693967040        1.25240785493681
C            3.24640816308891       -1.57557934812305        0.64162821603098
H            1.81655636023385       -1.03823092939199        2.12790812545831
C            3.48761316355752       -1.59756520345355       -0.72326032180864
C            3.91459104139312       -2.47283310185330        1.46536065767635
C            4.37848126826319       -2.51032085087457       -1.26048980668383
H            2.95864103685710       -0.91935362274041       -1.37195392289812
C            4.81104580469515       -3.37804137679696        0.92907163192371
H            3.71809597445195       -2.46837326893224        2.52783096047019
C            5.04510561130440       -3.39895895638615       -0.43607481997526
H            4.54600593446779       -2.52730495215578       -2.32712896401128
H            5.32178351380631       -4.07566076000734        1.57670717612473
H            5.73947637021690       -4.11231946177550       -0.85535508210234
C            3.06174311578365        0.68009237452399        1.69845625579216
C            2.20352284552792        1.55802893291055        2.46185021928099
H            3.91143212858054        0.37296550961450        2.31294790091144
H            3.43543633325169        1.20197937306916        0.81331008197698
C            1.44664966339591        2.24140888271157        3.08829690495281
H            0.80809024571311        2.84726775510173        3.65835250921723
Cl           0.01831153135814       -1.98504250556070       -1.97843372793164
Cl           0.13578494686421       -2.66874391706048        1.07785587024420
O           -1.47744325844350       -0.65449022886995        0.60975810988737
O           -0.37109337860471        0.54713466754087       -1.24658968022160
C           -2.40709840726418        1.49746766437054        0.27614348745536
C           -1.15552184161112        2.17738827716687        0.18472850785417
C            1.00885565163559        2.36540725906324       -0.80778622150779
C           -3.72089868583459       -0.49668432088620        0.00227510893035
C           -4.92058344790435        0.25900797789973        0.05408095306358
C           -3.59865264214088        2.24699113437974        0.38223144746291
C           -4.82034630384698        1.65875167304649        0.29713773123221
C           -0.93020333581045        3.38983413466724        0.87752146119677
C            0.25250990751691        4.04586405044876        0.77991708865861
C            1.27282181629101        3.55134244041494       -0.07807761849714
H           -3.51683404759250        3.31786696667742        0.47202607562515
H           -5.72451055841226        2.24150483113555        0.36661269861293
H           -1.69998496133345        3.74318434097113        1.54404256516985
H            0.44236953188965        4.94206895058188        1.34837546870934
C            2.50543133653935        4.19876277555634       -0.21184946930618
C            1.99684399598984        1.92512947427415       -1.70922657428149
N           -2.51702142602913        0.13292972077068        0.21042416958642
N           -0.17350286589169        1.70780050763019       -0.62810374975134
C           -3.83787412266372       -1.87343523810946       -0.24575861107707
C           -6.15640394810685       -0.36777940356210       -0.12775611136549
C           -6.23341091708468       -1.72393761189843       -0.35766715582531
C           -5.06921570575098       -2.47552888777029       -0.41984466491811
F           -2.76173200509734       -2.65864721710709       -0.34919831700540
H           -7.05089847248035        0.23370287324031       -0.08184873573933
H           -7.18983045666385       -2.20297055885349       -0.49292102003532
H           -5.09296050565154       -3.53641418598858       -0.61025131219759
C            3.20532581395401        2.57651525401461       -1.82532389752009
C            3.46967729468451        3.70922145915143       -1.06231814552444
H            2.68534029541023        5.09051631970107        0.36769315715976
F            1.79252144691141        0.87504090422848       -2.51217276266018
H            3.93201772533293        2.18956819144927       -2.52220552308454
H            4.42313074597903        4.20443025933395       -1.15443254523800
