57
 energy: -108.005182977193 gnorm: 0.000740329584 xtb: 6.5.1 (b24c23e)
Si           0.19877846042867       -0.98084982129737       -0.51596232651540
O            1.38383881035339       -0.11113156805910        0.20622917478381
C            2.37289073359060       -0.53598142959028        1.11277118317939
C            3.40710371098672       -1.42680008213579        0.47246799317817
H            1.88949727628629       -1.08529060873639        1.92962084938203
C            3.72535357096354       -1.30878174509872       -0.87154963610521
C            4.07057735236913       -2.36827294077844        1.24890738093860
C            4.68606033374446       -2.12964565546499       -1.43598498898730
H            3.20370485254611       -0.59366407164496       -1.48594628552927
C            5.03676905272140       -3.18101148070097        0.68652680438659
H            3.81505410567000       -2.47174461130368        2.29360664572088
C            5.34615517502082       -3.06412646209339       -0.65856055583180
H            4.91395984179949       -2.03912277374255       -2.48760175504547
H            5.54260030658826       -3.91474606950028        1.29693444263649
H            6.09429699696624       -3.70621155431794       -1.09991272511639
C            3.05067864979598        0.72546298886987        1.68517891454236
C            2.11776619388940        1.49851436899191        2.47378420365988
H            3.89079913086279        0.41605347052349        2.31178109053690
H            3.43077436774458        1.33232592890610        0.85897509733760
C            1.30530241637391        2.09716109170899        3.11721581095651
H            0.61801059119211        2.62988646353963        3.70324369535592
Cl           0.40946295042940       -1.79198951343867       -2.36565487158867
Cl           0.42171026737419       -2.75975428446995        0.61730849659090
O           -1.34267545927908       -0.85177588170736        0.23235240907878
O           -0.24195967404072        0.61310242309682       -1.42776335122973
C           -2.46344431893436        1.21850714295142        0.00551706088489
C           -1.28221631580425        2.01648159710936        0.07883899987366
C            0.91892238306904        2.49740637820142       -0.71381452895507
C           -3.54215696331320       -0.85838691843793       -0.54138750931586
C           -4.81221692972943       -0.22560213755763       -0.53469904722918
C           -3.72867262048689        1.84071842698889        0.06907909593300
C           -4.87376987918707        1.15031903367766       -0.17194010152489
C           -1.22999998348829        3.17186007509303        0.89281707453225
C           -0.11412084801002        3.94026785144850        0.95044988468698
C            1.00987320375899        3.62663280099707        0.13778347458541
H           -3.76241249879145        2.90207833491861        0.25345452094717
H           -5.83498389124350        1.63680506830308       -0.13645918240719
H           -2.07846523339392        3.38701878115834        1.52183091716561
H           -0.05644620207412        4.79236258174111        1.60853454694660
C            2.17768985060440        4.39583560827421        0.16237807501630
C            2.00776971163331        2.24048205781004       -1.56850273937341
N           -2.42838201009448       -0.13861172496190       -0.18104365139942
N           -0.20221985495957        1.71940060472018       -0.68999828183267
C           -3.50138959285477       -2.21345428908703       -0.90509063360472
C           -5.96045660901799       -0.94689812981975       -0.87282949881944
C           -5.88303795301773       -2.27939167655843       -1.21420062179141
C           -4.64839989087425       -2.91082002037453       -1.23245763958185
F           -2.34835205158557       -2.88452158912676       -0.97302979592663
H           -6.91137018327008       -0.43787223126606       -0.85785301031919
H           -6.77280309672983       -2.83211167454585       -1.46944462395879
H           -4.55002069175879       -3.94891021082157       -1.50592623516158
C            3.14907598031085        3.01139818802683       -1.52982825268959
C            3.24368981762784        4.08409425787546       -0.64930743686769
H            2.22605967339023        5.23915768124782        0.83308481509718
F            1.96942347545104        1.25636701929618       -2.47365126076210
H            3.95828292562821        2.76403454148457       -2.19880122983940
H            4.14664058276915        4.67275438968173       -0.61989288061683
