57
 energy: -107.999400706690 gnorm: 0.000943557841 xtb: 6.5.1 (b24c23e)
Si           0.21287448415035       -0.28798769988071        0.46790486101015
O            1.33728660666338       -1.29259490647847        1.02829499005435
C            1.90724443649843       -2.49072972237617        0.55836096426886
C            3.16710092033309       -2.19194527345118       -0.21327699618075
H            1.18967284778870       -3.01517750512391       -0.08248261957758
C            3.98137481838054       -1.13555802570281        0.17114980597832
C            3.53335603801444       -2.97823715168717       -1.29682496458384
C            5.14578250458576       -0.86576658502147       -0.52415699554627
H            3.68388056536470       -0.51842444427259        1.00463422889059
C            4.70259676707019       -2.71108610126199       -1.98661534633252
H            2.89600934922018       -3.79561665109699       -1.60333942398739
C            5.51057710810531       -1.65443861716101       -1.60183736476697
H            5.77076986419433       -0.03774994634833       -0.22328694983973
H            4.98049647970002       -3.32549976889059       -2.83082803020563
H            6.42080738803744       -1.44417941799940       -2.14488568138372
C            2.22572151948549       -3.36865707955893        1.78282406437183
C            1.00674767670388       -3.80272787870433        2.42954881788678
H            2.80504618075501       -4.23601754501168        1.45519028375901
H            2.82452117691197       -2.78252274588673        2.48407883895976
C           -0.02645294286284       -4.13784866465350        2.93019081808595
H           -0.92625846283591       -4.42734141162736        3.38348086868835
Cl           0.77313601840009        1.03318523952507        2.06484872425784
Cl          -0.43581218903560       -1.60111389284544       -1.17869487822330
O            0.31251520381285        0.92816965892707       -0.75477486194665
O           -1.41134638671284        0.01198920642314        0.96280143147787
C           -1.45820325581328        2.39914147053708       -0.43905566267644
C           -2.42987255402242        1.35448716460204       -0.63269339966711
C           -3.25379595893664       -0.85690374221233       -0.18907600024874
C            0.81104023961574        3.14457553543653       -0.20180124918527
C            0.37156697682833        4.46713702572488        0.06276614054905
C           -1.90009687775400        3.72573173416458       -0.26756258662811
C           -1.02435994005215        4.73171104359576        0.00148480904514
C           -3.51626201601745        1.57242190098430       -1.50282230071627
C           -4.41460644686175        0.58596839814546       -1.77027629279757
C           -4.30025371910613       -0.67912664519256       -1.13046070404365
H           -2.96261999438391        3.90891417973818       -0.27603679228581
H           -1.37342728138379        5.73413702547614        0.18972623595983
H           -3.57165100946050        2.52024734561302       -2.01386184439527
H           -5.21077591228053        0.73950364990730       -2.48080665199578
C           -5.18846351177770       -1.72680469830555       -1.39513544300338
C           -3.18719755502780       -2.08580414398209        0.48952995927298
N           -0.11532972026602        2.17484321535760       -0.45665745425635
N           -2.37605795004484        0.16535878494462        0.02853647414954
C            2.19586660985643        2.90726840109472       -0.21168274967409
C            1.30294077301850        5.46842470236978        0.35714440926702
C            2.65061402265554        5.19139270754341        0.37859579130297
C            3.09633381214690        3.90964264770305        0.08047893097332
F            2.70137050468565        1.70945611527106       -0.53359561752058
H            0.94227062723367        6.46332909519767        0.56656182142674
H            3.36474038643338        5.96440195123400        0.61341811492816
H            4.14772595190916        3.67133771985009        0.07021655159311
C           -4.07225436182345       -3.10569754961842        0.21016927179332
C           -5.06865451997652       -2.93248891177059       -0.74248267941032
H           -5.96949895625641       -1.57036357439982       -2.12270463014604
F           -2.28545062761432       -2.30822474289429        1.45394326273494
H           -3.96803227561078       -4.03418268920147        0.74818486408874
H           -5.74954843266332       -3.74074118671169       -0.95653316353008
