57
 energy: -107.999399362550 gnorm: 0.000932462094 xtb: 6.5.1 (b24c23e)
Si           0.21608670425900       -0.25748731566799        0.42308336610141
O            1.33409455708570       -1.28022827588211        0.96395359849708
C            1.89777389321504       -2.47017132167600        0.46587229244675
C            3.15360307823297       -2.15935678635200       -0.30729306489722
H            1.17433796300706       -2.97940610677375       -0.18061664561440
C            3.97844107140793       -1.12009631666026        0.10048631321465
C            3.50616740786407       -2.91768348852824       -1.41495362996612
C            5.13991630259279       -0.83957569085228       -0.59524118912690
H            3.69156461296330       -0.52432329989052        0.95303076910258
C            4.67260569114757       -2.64003761061856       -2.10526530171617
H            2.86082085496158       -3.72156961804813       -1.73966386423759
C            5.49113922794672       -1.60061950812268       -1.69697169903183
H            5.77317549154470       -0.02502502174882       -0.27556157894334
H            4.94010153985539       -3.23282827545802       -2.96806649413857
H            6.39909866193830       -1.38217178655567       -2.24037795142783
C            2.22015204276734       -3.37362458387736        1.67074467813080
C            1.00266406198742       -3.79693035713444        2.32787102600076
H            2.78039233484487       -4.24480704761825        1.32031768072953
H            2.83859803503625       -2.80893921670464        2.37281253981728
C           -0.02914768532561       -4.12141127320977        2.83883118926610
H           -0.92523854160941       -4.40695493567016        3.30089133977362
Cl           0.79249778721549        1.03073557420776        2.04234008557208
Cl          -0.44931269919508       -1.54030239795544       -1.23957219840698
O            0.32006531395163        0.97598147011807       -0.78001067241952
O           -1.40499506088594        0.04913375943600        0.93069245253731
C           -1.43430289456991        2.45898228048664       -0.43383063813597
C           -2.41608571804858        1.42641108235388       -0.64026164458071
C           -3.26004780065422       -0.78325457173880       -0.22705697577666
C            0.84326014531086        3.17657310441346       -0.18689751713482
C            0.41759101459783        4.49835110690896        0.10331213150452
C           -1.86223219779464        3.78706546681945       -0.23983231851759
C           -0.97543190762820        4.77886838530546        0.04568081492465
C           -3.50293612781061        1.66770861766353       -1.50370649158791
C           -4.41076780667087        0.69365401451277       -1.78408970020245
C           -4.30688622564051       -0.58175056601626       -1.16318800426215
H           -2.92275427241036        3.98178494061385       -0.24401845043099
H           -1.31374572973806        5.78156895776015        0.25140422684412
H           -3.55109366472481        2.62386977222962       -1.99971192066833
H           -5.20735364052375        0.86537027789963       -2.49001010070597
C           -5.20583220512070       -1.61692782731036       -1.44095566891002
C           -3.20457509596522       -2.02225229356641        0.43431044241697
N           -0.09373387317647        2.22214634188185       -0.45915907220902
N           -2.37111370248081        0.22680675201852        0.00255253629742
C            2.22532783732210        2.92453591677279       -0.20073553933117
C            1.35928877723506        5.48312071045940        0.41957762521083
C            2.70373810322414        5.19030128873339        0.43946586856340
C            3.13603998932988        3.91028225666466        0.11533622032268
F            2.71810661087659        1.72876746848985       -0.54920287242812
H            1.00942684694344        6.47774600176897        0.64792182558798
H            3.42560667038430        5.95003609588458        0.69305000690707
H            4.18468922517148        3.66024796256487        0.10278581987006
C           -4.10088525978490       -3.02897124059408        0.14317066292122
C           -5.09716311126044       -2.83262791001224       -0.80516719540120
H           -5.98645715962351       -1.44244574788953       -2.16484601993924
F           -2.30319946664357       -2.26726319497792        1.39355950135416
H           -4.00563157415581       -3.96565142810921        0.66861396239149
H           -5.78653843277621       -3.63102159074203       -1.02892555615565
