57
 energy: -108.003401201898 gnorm: 0.000886575981 xtb: 6.5.1 (b24c23e)
Si          -0.42474814155791        0.39030422693181        1.45552113099292
O            0.36189287774740        1.76792182563688        1.16755883553495
C            0.64391570592267        2.46922315784472       -0.03005870101928
C            1.83437171207941        1.82903356758335       -0.70085364093496
H           -0.22373989510997        2.40727383995628       -0.69051649141665
C            3.09471262779927        1.89230421192048       -0.11900297880448
C            1.67518779663491        1.11531643360251       -1.88142333283913
C            4.17532354389769        1.26964417127119       -0.71821145974525
H            3.22637366399230        2.41767079156742        0.81397276704184
C            2.75228117559821        0.47587626599590       -2.47072446598853
H            0.69747824094855        1.05859522307971       -2.33640196785076
C            4.00759829440141        0.55775690519155       -1.89391423327629
H            5.15339841895511        1.33716164380911       -0.26483909797431
H            2.61248898124402       -0.08354695961701       -3.38498126520708
H            4.85105878190573        0.06638960585801       -2.35619609010665
C            0.89460802448687        3.93958570524813        0.33876262821963
C           -0.35148388341912        4.60187610731810        0.66032425830523
H            1.37557496986412        4.44412858449584       -0.50401296717141
H            1.55303407326082        3.98028671137205        1.20884178194394
C           -1.39700564487117        5.12288133359245        0.91723075913582
H           -2.30872043498417        5.58311933327150        1.15410362902921
Cl           0.09380069155567        0.37823950186944        3.46682882838464
Cl          -2.46356743402002        0.17566073464887        1.85174302642815
O           -0.84982156891314        0.26333968608692       -0.42382136790859
O            0.36580204762065       -1.12297032977918        1.25830506911372
C           -1.24955007340232       -1.93555116934595       -0.96633866420196
C            0.14375930885589       -2.22559632782087       -0.82275365937103
C            2.30292847505600       -1.78958371355083        0.13987493667709
C           -3.01366761390371       -0.32471059487181       -1.03926343657755
C           -3.95770071684568       -1.33404410690001       -1.35445147838748
C           -2.16678171340684       -2.94403129993887       -1.33690670759719
C           -3.48753813415844       -2.66899136011740       -1.48771669851048
C            0.74543021824459       -3.11927723992447       -1.73138157503964
C            2.08699718927475       -3.33531769746106       -1.73548422903176
C            2.91893999999770       -2.65222431587765       -0.80413977639859
H           -1.80150869393625       -3.95454653560851       -1.42215175223157
H           -4.19584773339479       -3.45115756901340       -1.70893724132706
H            0.11451038985859       -3.58450869409517       -2.47146403714977
H            2.54185206918339       -4.00135275734716       -2.45057118587380
C            4.30390088021323       -2.83524413947256       -0.79697136475373
C            3.14623061076239       -1.14545703918030        1.05742110510908
N           -1.71045816122880       -0.66770270820142       -0.81363354096538
N            0.93581217062558       -1.64666008265317        0.13350905300446
C           -3.47392072081202        1.00499873620702       -0.99294046569681
C           -5.30500474911162       -1.00027322039968       -1.53385022077518
C           -5.72728467665917        0.30385599799791       -1.42903022698495
C           -4.80242183196615        1.31189619868599       -1.17539448966464
F           -2.62485119861787        2.02680224758827       -0.81661285509087
H           -6.00606243330823       -1.78928900945940       -1.75728220526694
H           -6.76800442209005        0.55487560739526       -1.55711066142277
H           -5.10249471127355        2.34581305506819       -1.11865036007934
C            4.51209398958086       -1.35745494442256        1.06399882653219
C            5.09693873172607       -2.20314006009018        0.13543581124674
H            4.73902488017844       -3.49473220698864       -1.53177652587495
F            2.67546574594389       -0.27871303946987        1.95905396272768
H            5.10031355793980       -0.84067607283289        1.80499446151276
H            6.16362774163240       -2.36018821664523        0.14568154758124
