57
 energy: -107.999830140853 gnorm: 0.000517242357 xtb: 6.5.1 (b24c23e)
Si          -0.02700417442172       -0.62329526767091        0.17262712201008
O            1.16816710932839       -1.70522964159251        0.10906677047648
C            2.35514041300179       -1.89909822685763        0.83657923963710
C            3.54255323346918       -1.81364660976543       -0.08617632689161
H            2.43981184870057       -1.13464618957549        1.61652901279631
C            3.43191549787042       -2.20169207764585       -1.41378771543314
C            4.76640887626741       -1.36785329430528        0.39454267909366
C            4.53126712487850       -2.14154592097123       -2.25120529815196
H            2.47492669495758       -2.53398446516653       -1.78520161498545
C            5.86663607585175       -1.31502872502784       -0.44210409405451
H            4.85267412855473       -1.05672909630525        1.42624504029556
C            5.75130761767490       -1.70192349927776       -1.76681302635044
H            4.43564014139238       -2.44005190919889       -3.28521666601264
H            6.81592874742164       -0.96648707258666       -0.06110991766419
H            6.61041931173068       -1.65661720225028       -2.42050632552317
C            2.28525602878528       -3.28953024177751        1.50017998403641
C            1.15510965713198       -3.34618583507348        2.40211121902827
H            3.21592183069420       -3.47588258084018        2.04190115422077
H            2.16665218937505       -4.04464026117305        0.71864848822317
C            0.19092800662388       -3.33001760863392        3.11002993601520
H           -0.64979407193000       -3.33009216599705        3.73644412559450
Cl           0.64436563313060        0.38342129582449        1.97647815721434
Cl          -0.94316170579518       -1.76757518730802       -1.39208701424896
O            0.14096812208560        0.71905378197334       -0.88902636320637
O           -1.59564937829619       -0.15535469723810        0.81170311195053
C           -1.50155380402990        2.29908700097372       -0.40628537827702
C           -2.56314205784276        1.35738155116808       -0.64443871872217
C           -3.57430901090189       -0.78507209904726       -0.26897445961135
C            0.82627277076006        2.80438154076092       -0.09026205596656
C            0.50606942381474        4.13483579651461        0.28572180273620
C           -1.81958151507040        3.64376345251795       -0.13375454696681
C           -0.85708439160613        4.53782254595332        0.22195800839744
C           -3.64881855792407        1.71613080479188       -1.46740419891050
C           -4.63976233526144        0.82779814607917       -1.74955159981699
C           -4.62777046712857       -0.46809447158883       -1.16418576846085
H           -2.86009626712352        3.92649722796916       -0.13457559025184
H           -1.11256275313193        5.55171785408255        0.48440610468570
H           -3.63247219247971        2.69001088964554       -1.92985100034553
H           -5.43803167213457        1.08537948748530       -2.42689134530105
C           -5.62263182639622       -1.41382746173128       -1.43521785368506
C           -3.61053511974848       -2.03849549415374        0.36618811952696
N           -0.18297236820364        1.95553614079644       -0.44652840905786
N           -2.59220732625313        0.13546987249866       -0.04704986041097
C            2.18233295561218        2.43608155863810       -0.09292507716877
C            1.51848924972959        5.01055020372951        0.69019920638574
C            2.83329346704342        4.60292022477920        0.71641621572397
C            3.16442226288211        3.31626700722497        0.31185171971786
F            2.58587496826493        1.22791387315724       -0.50979724220873
H            1.24756955392427        6.01327434269665        0.98179836222792
H            3.60934552125524        5.27907554378131        1.03767378943029
H            4.18743075295790        2.97582728001225        0.30310803424126
C           -4.60045838398947       -2.95468300242751        0.08409277350294
C           -5.60228834631942       -2.64895505115639       -0.82974827983529
H           -6.40645250022386       -1.15426562905467       -2.12957982588045
F           -2.70774388388953       -2.37924442761566        1.29499425393461
H           -4.57487700590663       -3.90749717466645        0.58804926988794
H           -6.36541009905114       -3.37855783541417       -1.04891812758986
