57
 energy: -107.652708096413 gnorm: 0.000572977468 xtb: 6.5.1 (b24c23e)
Si          -0.29879726169575        0.87752436678182        1.35648242091982
O            1.27734858285943        0.73727760362893        0.97099300686797
C            2.30745510854213        1.65143813861505        0.66422927667883
C            2.65338656229245        1.40871314335600       -0.78911261534551
H            1.92234392750496        2.67317465307964        0.78258814239238
C            3.85153839706444        0.85780013618024       -1.21890069796946
C            1.66307054895590        1.68041981194704       -1.72914663776044
C            4.05409911101567        0.58584002047136       -2.56239947835536
H            4.64046486401518        0.63843658062337       -0.51653396558709
C            1.86201616534654        1.39954619755427       -3.06713320055202
H            0.73192768583915        2.11585197851661       -1.39728770676124
C            3.06112265150787        0.84843918796468       -3.48832571704432
H            4.99566466820781        0.16467839607142       -2.88483895410151
H            1.08333910687230        1.61698960076005       -3.78379994726334
H            3.22190792136358        0.63118142221808       -4.53429118526234
C            3.45722705331364        1.43012835208536        1.65483641713014
C            2.97472189709141        1.62880331000153        3.00694534189432
H            4.26172555243272        2.13674812809170        1.43692630089679
H            3.82964107109636        0.40551650115617        1.56298822454133
C            2.51304267846579        1.76844188019439        4.10117055694011
H            2.11979856454574        1.89924405228245        5.06444107965515
Cl          -0.90271536365681        0.69239073259912        3.29471403873978
Cl          -0.44222033245099        3.00709023859706        1.24865992139762
O           -1.40510993052427        0.90717587201717        0.04635783422747
O           -0.36433665690967       -0.98868832892706        1.26332931808333
C           -1.42061563711642       -1.06989442637646       -1.23947419127821
C           -0.06398295107903       -1.43327171135545       -0.97003642177567
C            1.67739724187237       -1.91169286481055        0.60732421721379
C           -3.47464624109656        0.04680582482750       -0.63518671737078
C           -4.16078954779020       -0.65481946845543       -1.66533279549878
C           -2.09994945995379       -1.74375365145847       -2.27563135004752
C           -3.42053402757216       -1.53191804505906       -2.50719578849061
C            0.80326496760020       -1.77943243660071       -2.03108954744989
C            2.09646009463751       -2.10518466276556       -1.79186790721745
C            2.57692363519581       -2.18779639707767       -0.45670158603613
H           -1.55513683419175       -2.47675621802330       -2.84753363906068
H           -3.93765001520358       -2.05194870460013       -3.29735310927476
H            0.43842898973097       -1.68726305757719       -3.04049753614215
H            2.78148060918932       -2.29292669323983       -2.60261211791571
C            3.90816122641696       -2.52058748337988       -0.19004508358784
C            2.14526253186437       -2.07772513263301        1.92960192352917
N           -2.10818093414337       -0.11710750217692       -0.53104219904581
N            0.40911542542391       -1.49528130417492        0.30118128870339
C           -4.23829920527415        0.87871307643373        0.20686943234747
C           -5.53490918016604       -0.48773229179869       -1.84985171102286
C           -6.25130000411669        0.36237508545311       -1.03754454316873
C           -5.60124937797345        1.03092230857842       -0.01416564771195
Cl          -3.59742104154188        1.71491004716564        1.57342782867852
H           -6.01955050408526       -1.03542470242399       -2.64307604542590
H           -7.31026331369635        0.50188669033272       -1.18558617319238
H           -6.15069637642614        1.68136878569764        0.64642884244964
C            4.35981468823825       -2.60385484514791        1.10661013606551
C            3.47268369092364       -2.40161160949126        2.15559562568158
Cl           1.13793982220731       -1.95103122332298        3.31781945686138
H            4.56948104541775       -2.70796269999681       -1.02154214672127
H            5.39034605974999       -2.84449417339930        1.31574632412466
H            3.80489404990809       -2.50369248902003        3.17604340739086
