57
 energy: -107.652688213249 gnorm: 0.000715156975 xtb: 6.5.1 (b24c23e)
Si           0.00032446986343       -1.04788508064302       -0.10444602876856
O            1.22900720143721       -0.33102568034410        0.69698992881895
C            2.15672336311401       -0.88144084616696        1.61276554472339
C            3.16032578212862       -1.72198869992946        0.86246328845277
H            1.61160074049973       -1.51536274154784        2.32173571316638
C            4.04443061715829       -1.13742462991658       -0.03528367047860
C            3.14916422960386       -3.10361054979303        0.99891836949321
C            4.90502445416176       -1.92096204200391       -0.78224630947530
H            4.05281235398202       -0.06524477525861       -0.16317074997075
C            4.01127044765681       -3.88643518289848        0.25128974797396
H            2.44739689925204       -3.56589397548509        1.67633905669117
C            4.89029434432925       -3.29774356186328       -0.64098032760166
H            5.58364882468634       -1.45463851050412       -1.48185886521566
H            3.98742874587216       -4.96049375635956        0.35930635155506
H            5.55705477113999       -3.90977291188723       -1.23053439897564
C            2.80600657439121        0.28527568764255        2.37329684527087
C            1.80573956260239        1.02468517275732        3.11176826966189
H            3.55293849681746       -0.11905827414249        3.06085272836754
H            3.29864679366985        0.95891474690513        1.66760171634921
C            0.93996984039329        1.61808077855454        3.68613807836072
H            0.19859194437577        2.13394107796801        4.21892841497187
Cl           0.42688153998671       -2.11457088968648       -1.79757150561692
Cl          -0.26833434231136       -2.72955929756673        1.18795207796599
O           -1.58992091252775       -0.66490407291332        0.39317908022004
O           -0.06684693346103        0.46993896132927       -1.18783622069768
C           -2.17428916137724        1.60489042405939        0.10630551523517
C           -0.84623741649636        2.12311540892518        0.20619910943653
C            1.42309560602324        2.15646891499942       -0.56620581330476
C           -3.71929661084505       -0.16885511526444       -0.43628491328056
C           -4.80326044512823        0.74983277109076       -0.37370534539885
C           -3.25442870002188        2.51027706512488        0.17911493055661
C           -4.53309676098753        2.10220658962224       -0.02168536983456
C           -0.57282104950882        3.22456441335427        1.04947572806608
C            0.68043264907721        3.72913489527300        1.14950480783882
C            1.72157467334089        3.22186082770285        0.32554967181234
H           -3.03477452889079        3.55176811560346        0.34712286960211
H           -5.35488107391313        2.79766471700069        0.03558675109516
H           -1.36619701265489        3.59607225248222        1.67653040686009
H            0.91041384611700        4.51807530676391        1.84717992330767
C            3.01208265983282        3.75492901747851        0.38665551806219
C            2.43907430882585        1.72972488264508       -1.44967363614563
N           -2.46068504162209        0.27750410025324       -0.08643830932699
N            0.16905086749161        1.60953828554094       -0.53514800995619
C           -4.00461426608576       -1.48730195329830       -0.84171427268211
C           -6.10676083077571        0.33527466873034       -0.65574919499365
C           -6.36546281908557       -0.97202762866145       -1.00106895414920
C           -5.31480170209511       -1.86823949561564       -1.10113986940413
Cl          -2.79947423563575       -2.69231761593155       -1.10664746067059
H           -6.90380348272531        1.05977510438581       -0.59404686436957
H           -7.37296855045911       -1.29728811224894       -1.20610352374155
H           -5.49509472213520       -2.88787105419093       -1.39986244137390
C            4.00378665974134        3.27770195281357       -0.43936138035318
C            3.70521544573399        2.28662602636350       -1.36474431809111
Cl           2.19219222091167        0.56444540593602       -2.69619647316360
H            3.21070116480315        4.54845027160724        1.08998609801268
H            5.00310072945447        3.68025740135569       -0.38822778858005
H            4.46167077026442        1.93715920985101       -2.04907952630789
