57
 energy: -107.552644368906 gnorm: 0.000604528531 xtb: 6.5.1 (b24c23e)
Si          -0.14051469373868       -0.64115296183860        0.54339224274200
O            1.43512408901038       -1.51702501304568       -0.14216149549732
C            2.60788057874343       -1.38003931376336        0.20898048286626
C            3.70292073689744       -2.05464063315451       -0.44888769488202
H            2.84632861076334       -0.79070792048783        1.10087356425563
C            3.45949156515641       -2.88705983229447       -1.54878608232063
C            5.01290671209085       -1.88655972282720        0.01453787835017
C            4.50706870571133       -3.53992632263855       -2.16433576267621
H            2.44274123034778       -3.00376533070008       -1.89209280325218
C            6.05348670238203       -2.54237087381674       -0.60983389371337
H            5.19708235455498       -1.23960566467013        0.85972331037359
C            5.80301774085914       -3.36942519607273       -1.69698912730493
H            4.31892360873205       -4.18457573685113       -3.00974008630522
H            7.06459887004889       -2.41424012044681       -0.25293422951781
H            6.62128622960591       -3.88218905304940       -2.18033381371186
C            2.11331499001372       -1.04798852621802        3.82791166239835
C            1.42468513785379       -0.38534702349136        2.95159463624732
H            3.17949772076490       -1.18989288479268        3.74253920401362
H            1.63845726384749       -1.48897506474190        4.68839043231326
C            0.71891807475280        0.21588676797151        2.04935858008091
H            0.55052629769588        1.28056270466551        2.16338815425168
Cl          -1.06433874760214       -1.47235769198824       -1.25476112719266
Cl          -0.48279908726037       -2.48295030963525        1.61406961025446
O           -1.63851731341666        0.27047369213368        1.00195660974372
O            0.35702305291782        0.74333805533626       -0.61342923387808
C           -2.23628430618261        1.69831523186564       -0.67595322070608
C           -1.09399001397983        2.53096733754721       -0.34979317019850
C            1.25980396654608        2.81583329398284       -0.02752770082307
C           -3.61101140532168       -0.18112526386079       -0.17591591754725
C           -4.38151473049492        0.06970630829457       -1.34425166528081
C           -3.08747108576871        2.06342244305337       -1.72913109997003
C           -4.09688187241425        1.23025029403442       -2.10761901801347
C           -1.30481161818010        3.88422976708465       -0.07059891900251
C           -0.28208594694914        4.66899564865333        0.38070255509678
C            1.03703253945393        4.14500653228859        0.43370305221854
H           -2.85710318396866        2.95953755535541       -2.28341055621050
H           -4.69161075073642        1.43889998214016       -2.98252016445781
H           -2.31220482186001        4.26387760813826       -0.13605248009634
H           -0.45324638631842        5.68670833914635        0.69006235874912
C            2.11069250629728        4.91910147085972        0.88161520387054
C            2.59350356276002        2.39196395452277       -0.17584160262080
N           -2.51677175146025        0.60426007678399        0.05857158626504
N            0.17301882005034        2.02765559404218       -0.31410243132106
C           -4.03048742599800       -1.20800274662722        0.69545608669649
C           -5.41714001842063       -0.80396419252200       -1.69635152052009
C           -5.71868861526396       -1.88162427007625       -0.89808669730631
C           -5.05122452627089       -2.05792342434372        0.30802293636331
Cl          -3.39818393104979       -1.39729261925912        2.28116271993492
H           -5.97174223249824       -0.61143372495270       -2.60152446900002
H           -6.49866763183455       -2.57086549963132       -1.18112189499303
H           -5.33507312900653       -2.85509234469015        0.97570438662549
C            3.39875803284071        4.42603068334058        0.84317211502818
C            3.63849414308897        3.18269774926964        0.28417646136383
Cl           3.03804315314896        0.94924534241335       -1.02924759055476
H            1.91225186492117        5.91366888300757        1.24901047255369
H            4.22255147863210        5.01951216481688        1.20637648990812
H            4.64637588551175        2.81746180175152        0.17253967630971
