57
 energy: -107.648211339884 gnorm: 0.000512466084 xtb: 6.5.1 (b24c23e)
Si           0.05326573536746       -0.54898887714714        0.05744265888641
O            1.01888856682293       -1.83170419702980        0.19135165463411
C            2.11872275347105       -2.16224634932350        1.00548021489242
C            3.38373027355919       -2.11506632094486        0.18745724777758
H            2.19105793403137       -1.45213352202682        1.83670185115210
C            3.36026307472660       -2.45397188344299       -1.15866843128853
C            4.58230478640106       -1.73123344030867        0.77420749778230
C            4.52064434285140       -2.40235486251956       -1.91035139388849
H            2.42305911785489       -2.73551138344001       -1.61435813285963
C            5.74300926011752       -1.68778943669180        0.02277639485721
H            4.59967153674593       -1.45597245471617        1.81932295902728
C            5.71402982549373       -2.02153865184639       -1.32099990992980
H            4.49155756528297       -2.65801896142746       -2.95948983709898
H            6.67100879307251       -1.38423127763170        0.48525446642200
H            6.61949022692304       -1.97915032030948       -1.90868621646547
C            1.88095103457877       -3.57623240429897        1.56725396892267
C            0.77065439686848       -3.56703913743570        2.49522099847161
H            2.78768798119482       -3.91650630817603        2.07428206090147
H            1.66091921880830       -4.24927787979971        0.73460539062818
C           -0.15101884865953       -3.50456844628163        3.25550274367448
H           -0.95893104419908       -3.46797839904285        3.92348306520936
Cl           0.80859775663596        0.47833405531073        1.85349182005661
Cl          -0.79646792909779       -1.55284994680020       -1.65694995237530
O            0.31897890907287        0.80437585051367       -0.96609349069169
O           -1.48982548793319       -0.09270067381095        0.68420645845688
C           -1.24423916249759        2.41461564525640       -0.41042445063960
C           -2.34064574573779        1.52772364698838       -0.71500580156556
C           -3.46670267562389       -0.59240044651966       -0.48837917745098
C            1.11286034043658        2.85924949810240       -0.14657863800909
C            0.81012657504958        4.17079067223650        0.31651915312888
C           -1.53672223217977        3.74353026313008       -0.05199192840567
C           -0.54739170734463        4.59397512956417        0.33084240415901
C           -3.38245577732931        1.99689904216893       -1.53636713524695
C           -4.40775539221029        1.17816019608739       -1.89182233719194
C           -4.47410253897004       -0.15067011409117       -1.39098939289004
H           -2.57188000810670        4.04140596895297       -0.00719358393281
H           -0.77448397393852        5.59226418437287        0.66880129768433
H           -3.30279978754799        2.99369604262070       -1.93930801017763
H           -5.17559450426996        1.51421075588045       -2.57003085138540
C           -5.51365242697334       -1.00586280700868       -1.76666425407516
C           -3.58905228661426       -1.88750549609543        0.05565815313253
N            0.06603608500659        2.04802161273870       -0.49476244270270
N           -2.45311478498874        0.27693847769296       -0.18876977757561
C            2.47030136025389        2.48855473806199       -0.23405562069076
C            1.83059172564408        5.02841910257194        0.73510602825276
C            3.14477373344903        4.62349621925845        0.68869794027650
C            3.45456223557091        3.36627169523081        0.19330665808189
Cl           3.03471191091888        0.98344853307331       -0.87261996845100
H            1.56557852815240        6.01077081889956        1.09374948990109
H            3.93393351036658        5.27922387756524        1.02051269779541
H            4.48172943343637        3.04620049249416        0.12759833136275
C           -5.58550507439621       -2.28127830031581       -1.25670645790005
C           -4.63285786886410       -2.70711365993292       -0.34322083921691
Cl          -2.51398117025750       -2.55323196640492        1.22977110988027
H           -6.25470097265855       -0.64447950288218       -2.46244485014302
H           -6.38045137266211       -2.94740359364547       -1.55204490948744
H           -4.69041475510070       -3.69713949742549        0.07907707633397
