57
 energy: -107.648360673302 gnorm: 0.000407210529 xtb: 6.5.1 (b24c23e)
Si           0.06928952569916        0.52537432317933        0.33778457773178
O           -0.03069358173305        1.60928370704928       -0.85708897037048
C            0.07278144622127        3.01433444070797       -0.78983915859405
C           -1.07795543485613        3.61651622425814       -0.02627624362218
H            1.01220432186036        3.28039048178967       -0.28873347989647
C           -2.36553267467748        3.13437689425254       -0.21539243553123
C           -0.86348907638508        4.65217675976053        0.87172432886264
C           -3.42457717380649        3.67293868509727        0.49212372411620
H           -2.53200451610329        2.32085404965541       -0.90465173555022
C           -1.92434972944356        5.19581221780805        1.57326986942578
H            0.13935015869876        5.01929887489463        1.03286176316805
C           -3.20592057424131        4.70623301168056        1.38666637007668
H           -4.42097917406744        3.28134729466538        0.34732959095743
H           -1.74760109465087        5.99621407140139        2.27659554474863
H           -4.03184125660262        5.12465304701389        1.94327863379928
C            0.09255350149898        3.54288362220606       -2.23528818350804
C            1.26375104169935        3.07324755654469       -2.94254274328241
H            0.08469324543116        4.63586018939832       -2.21146092305483
H           -0.80682044786138        3.19138004594324       -2.74672455227299
C            2.24560110550872        2.65958020585222       -3.48697274741206
H            3.10093177951557        2.30406938828514       -3.97885808029636
Cl          -1.69052354968804        0.02204099974797        1.35727926926136
Cl           0.76422651440748        1.78705525502447        1.92169525289618
O           -0.28558037982132       -0.71063831633934       -0.98711628712591
O            1.45894744354733       -0.39154657949560        0.71758127001757
C           -0.05903847221159       -2.77291777298465        0.01439167394139
C            1.36292919018296       -2.64753297094893        0.01389927006403
C            3.36081354995413       -1.32332511294036       -0.26440924742936
C           -2.19801155525036       -2.01554834383412       -0.76760112689558
C           -2.83740862773275       -3.11081858751365       -0.12950535794023
C           -0.68421544298753       -3.89065779618042        0.61647753533352
C           -2.03148232023437       -4.03417266975940        0.59041440645001
C            2.14501686470443       -3.82107921499569       -0.06707915187803
C            3.49316693536638       -3.76424830555771       -0.21320232903303
C            4.14271416866051       -2.50615178692578       -0.36246045216323
H           -0.07117916419670       -4.58070841240476        1.17206777533174
H           -2.51302414173583       -4.84585871133827        1.11198137739490
H            1.63885767865857       -4.77218071353598       -0.06171268955837
H            4.08491694943034       -4.66372176524409       -0.26886901778455
C            5.51598267115358       -2.43231807940776       -0.60584853078988
C            4.00742405597921       -0.09078816703454       -0.47568263756492
N           -0.84776900316321       -1.85713674291232       -0.60683438275864
N            2.02159350609560       -1.44393822319064        0.04224215935038
C           -2.99223341516280       -1.15254282670435       -1.55218338034095
C           -4.22461767966528       -3.26239117537777       -0.20676366412302
C           -4.98501889193432       -2.36475839471913       -0.91860257562808
C           -4.36327103817794       -1.32839274955582       -1.60267993441060
Cl          -2.33545270682095        0.09582402305831       -2.53784806951276
H           -4.68303072421745       -4.09576170617522        0.30240195689056
H           -6.05708750712724       -2.47050827569073       -0.96765186177010
H           -4.94539106373226       -0.64604694379344       -2.20085746516237
C            6.13409239760502       -1.21111414429824       -0.75718822645508
C            5.37651746071961       -0.05263837781795       -0.70274512847191
Cl           3.17706980741594        1.41893012778837       -0.54099438110587
H            6.07982164349883       -3.34991936674781       -0.66932492765535
H            7.19665409902244       -1.15166744525922       -0.93153488364866
H            5.83957135573049        0.90932718159986       -0.85025538724676
