57
 energy: -107.648683866392 gnorm: 0.000641011872 xtb: 6.5.1 (b24c23e)
Si          -0.43247401286156        0.45695349307026        1.34799167071613
O            0.07368927848223        1.93195384371633        0.90505339690603
C            0.17428490995708        2.55781841451653       -0.36142325598365
C            1.42046584528847        2.07869958490608       -1.06439504910434
H           -0.69401481229376        2.28461617803842       -0.96624311497417
C            2.68356118783434        2.43441450265020       -0.60832293297671
C            1.31463737315641        1.23443583373979       -2.16219651776086
C            3.81651984145184        1.97274782253664       -1.25440245091398
H            2.78195504119955        3.06976042432658        0.25791833040912
C            2.44798345234395        0.76535669821117       -2.80293021157601
H            0.33506769305442        0.94608582846773       -2.51575843476185
C            3.70235472826327        1.14122183713238       -2.35514218507142
H            4.79301962056391        2.26369225377043       -0.89724954731162
H            2.35067926355665        0.10950466216398       -3.65643146887028
H            4.58765158745233        0.78376263470983       -2.85951084040608
C            0.17201983429265        4.07751476049236       -0.13343874486145
C           -1.15387321202501        4.53561272137287        0.22354898228203
H            0.50252972800724        4.57781747128525       -1.04803719023472
H            0.86037302198789        4.31673344970855        0.67946784764919
C           -2.26544302376751        4.87422945025934        0.50816339037332
H           -3.23065876673960        5.18743951740439        0.77392584555105
Cl           0.22275853572257        0.77570303239026        3.31740670050392
Cl          -2.30399853997910       -0.22003928622755        2.06471575563764
O           -1.04735133851229        0.14325042816362       -0.38457970780268
O            0.69434604810153       -0.83366300206592        1.16589710897067
C           -0.99968896847082       -2.10953812313305       -0.76373899097356
C            0.43501244101100       -2.07814615993163       -0.81553532947116
C            2.61031808367110       -1.29012875991554       -0.12662628170561
C           -3.10164856353359       -0.95114775867183       -0.70035356896464
C           -3.78888532680510       -2.18975060958922       -0.83074037455832
C           -1.67331054969511       -3.33474522320179       -0.94941699357286
C           -3.02901212465263       -3.38556807429706       -0.94050201698058
C            1.03958630088276       -2.86807836328050       -1.81315954480807
C            2.38153267376352       -2.85230710674032       -2.00701065526791
C            3.20829390958487       -2.05275919824216       -1.17167882659084
H           -1.08510282102149       -4.23550409609843       -1.01508619545654
H           -3.55046276144417       -4.32646863415353       -1.01248676577284
H            0.39614735352613       -3.43544215477966       -2.46565604765374
H            2.83872529038198       -3.42778697569296       -2.79542590034890
C            4.58933213370729       -2.04760218857818       -1.37441981812359
C            3.48320164278185       -0.54897592764887        0.69611278044268
N           -1.73301149577652       -0.97521725377182       -0.63139088264119
N            1.23664992893352       -1.34738426840694        0.02079424636139
C           -3.87971620385698        0.22598046047222       -0.66692028018440
C           -5.18620127673446       -2.23007360579112       -0.85014424007174
C           -5.91966040237367       -1.07099940062045       -0.76278300652993
C           -5.26091874901578        0.14812186488902       -0.68713017038772
Cl          -3.21718684064520        1.81869944509613       -0.62370735899179
H           -5.67327552319952       -3.18900424012712       -0.93470454637815
H           -6.99751586037498       -1.09941336414009       -0.76487775818075
H           -5.82397538174442        1.06645820333363       -0.64600353770322
C            5.41668550440276       -1.31866317914129       -0.55104980355793
C            4.85583076133846       -0.58240634164188        0.47540856564005
Cl           2.98557991285334        0.44934857177592        2.01005690214263
H            4.99174511910070       -2.63784907164010       -2.18295973815187
H            6.48491340931627       -1.32056950278686       -0.69785429724071
H            5.48132109955200       -0.00607151828830        1.13702505928680
