57
 energy: -107.647439756762 gnorm: 0.000819362216 xtb: 6.5.1 (b24c23e)
Si           0.19550553196997       -0.29856854639576        0.34067567521123
O            1.07531916069910       -1.51428724470478        0.93503009045834
C            1.55172760640823       -2.72658057793186        0.38990545082858
C            2.87033441169560       -2.47168658451400       -0.29429290635824
H            0.82341166767485       -3.11769559257278       -0.32891651147394
C            3.85603402120315       -1.75038701850391        0.36783807784381
C            3.11023422442797       -2.93341225896118       -1.58029999625942
C            5.06962299717518       -1.50083978247882       -0.24678201221448
H            3.65534690846992       -1.36561743838497        1.35690897211017
C            4.32582644235850       -2.68360045810747       -2.19371364896002
H            2.33900548893484       -3.48028665782204       -2.10324058615942
C            5.30746924342911       -1.96952338723936       -1.52798932093613
H            5.82866845642663       -0.93447854841938        0.27317089417967
H            4.50399252872899       -3.04184352322425       -3.19718437846377
H            6.25403670447674       -1.77158854090828       -2.00965676969088
C            1.72916240323064       -3.73085870557438        1.54186071663755
C            0.45655168389622       -4.21910047846399        2.02598878865568
H            2.32913734867948       -4.57187569338061        1.18232846327467
H            2.26277055225662       -3.23536317327330        2.35632162088795
C           -0.60351091637115       -4.62367341346197        2.40586875072625
H           -1.52915112697593       -4.97789121748994        2.74932727954340
Cl           0.89083105805226        0.85582859608960        2.02461282234388
Cl          -0.50906951317646       -1.41068920713156       -1.42761430872033
O            0.49146452102900        0.96559345981241       -0.79740257531953
O           -1.39179979463370        0.15835819278594        0.81117322472413
C           -1.06084103472346        2.62333842672483       -0.38699511381481
C           -2.15426972890140        1.73419867887376       -0.69547001632839
C           -3.30846321276441       -0.36898346548554       -0.44620299042616
C            1.29093486440689        3.06383131079070       -0.09984414184951
C            0.99050481638300        4.39280446301046        0.30956770141664
C           -1.35077074489214        3.96794976691033       -0.09021496199729
C           -0.36372803396084        4.82457148710307        0.28431481060142
C           -3.15791961779748        2.18265252714497       -1.57422942648017
C           -4.17324897830836        1.35967052621243       -1.94837046362969
C           -4.27081593723001        0.04774465363968       -1.40866923291700
H           -2.38417529120845        4.27510203666825       -0.08305429168215
H           -0.59064272668320        5.83601981566779        0.58057816772959
H           -3.05409171202505        3.16607551597079       -2.00375893613020
H           -4.90936038297865        1.67891062334705       -2.66853362614707
C           -5.30004139820941       -0.81211539912918       -1.80036694061749
C           -3.46958851974103       -1.64106817349386        0.14001898268968
N            0.24578182171268        2.24173935210429       -0.42336996637533
N           -2.29791970465231        0.50067516051157       -0.13459718915958
C            2.64672432762472        2.68628185536920       -0.17057196033369
C            2.01201132594096        5.25764764543343        0.71114950891002
C            3.32352589942486        4.84257599666318        0.69533144820274
C            3.63223831948252        3.56984082956501        0.23929738367610
Cl           3.19877891459676        1.16709527915453       -0.78142090809706
H            1.74977474265392        6.25376199883886        1.03173214654632
H            4.11279134976622        5.50317790892834        1.01718096974777
H            4.65871511498520        3.24491475317303        0.18951723003094
C           -5.40710439249583       -2.06829083578166       -1.24893904014676
C           -4.50203674083482       -2.46695122490256       -0.27752275110513
Cl          -2.46140657827060       -2.26878027543428        1.39387600514598
H           -6.00642804722538       -0.46973708976408       -2.54045443159822
H           -6.19482210703548       -2.73778487852112       -1.55577795138232
H           -4.58920221709743       -3.43918646904592        0.17929017266855
