57
 energy: -107.561221886692 gnorm: 0.000543510942 xtb: 6.5.1 (b24c23e)
Si          -0.12202149455713       -0.44085513753698        0.25766993842485
O            2.14490327487334       -1.28883428820175       -0.46789565184237
C            2.85599165565929       -1.80078600040664        0.36692898062735
C            4.06758905170829       -2.55853647015396        0.06245601527658
H            2.62183996965350       -1.71656521689497        1.43870507968027
C            4.50421670823999       -2.68560009805642       -1.25788363647700
C            4.79222141267527       -3.16193642535706        1.09051134728375
C            5.64861344632579       -3.40321537396289       -1.54274040820788
H            3.92947542523004       -2.21256637213818       -2.04017156652650
C            5.93391974211788       -3.88295109769799        0.79829304220818
H            4.44810543592873       -3.06452756682040        2.10954370381069
C            6.36290048357317       -4.00232737346590       -0.51549946826886
H            5.98729420897044       -3.50001473650701       -2.56360079557189
H            6.49375515210797       -4.35429194045014        1.59237432015819
H            7.25712803185243       -4.56533693856206       -0.73948380219488
C           -2.03085350987165       -3.51193955387118       -1.40886897231175
C           -1.25874980464920       -2.47166953393663       -1.39453719888506
H           -3.09411939230074       -3.43298177097062       -1.57125783953490
H           -1.63410248846169       -4.50331268398211       -1.26422941222830
C           -0.49529436338595       -1.42929647029935       -1.33737747212476
H           -0.02715740667732       -1.06058812499782       -2.23794510987712
Cl           1.06399974860676        0.64156779518110        1.66786628709049
Cl          -0.04751144355201       -2.19504744553932        1.51174319983466
O            0.01640717046978        0.96663800218240       -0.90855933764201
O           -1.65136343521704        0.13556625097769        0.86641712056008
C           -1.34248770982727        2.66936085254957       -0.22053051890922
C           -2.48489415107901        1.82895271303150       -0.49198861206334
C           -3.70417777762775       -0.22121242122190       -0.22905629122119
C            1.02644084789594        2.99974957812403       -0.27687519664010
C            0.85677139637420        4.28274554794676        0.31453498775828
C           -1.53315764395455        3.98449343266186        0.22930480656851
C           -0.46095297573530        4.75963111430195        0.54931392846059
C           -3.49480878092392        2.32998859309755       -1.32581133621873
C           -4.50663669475498        1.52233219637373       -1.74936369529767
C           -4.62904030678611        0.20699791884948       -1.22354248781592
H           -2.54298488332027        4.32425363064341        0.39603081833430
H           -0.59037103975954        5.73956981255311        0.97956691641884
H           -3.38886537880617        3.33598468297842       -1.69962999225942
H           -5.23051125460310        1.86555563680985       -2.47022479378137
C           -5.67048952066285       -0.63283391624607       -1.62476225389194
C           -3.98597281296244       -1.41921188914324        0.45504564419275
N           -0.08509943429297        2.22462018831671       -0.46868356590812
N           -2.61508610208978        0.57651433941075        0.02871973249805
C            2.32814442949485        2.61600697108949       -0.65782186970599
C            1.97251953408175        5.06722310746418        0.62324926438890
C            3.24128751278066        4.62480823991919        0.32831414337324
C            3.40998851286629        3.41685781075613       -0.33339792175428
Cl           2.66053648988638        1.20476549938055       -1.58360124009997
H            1.81590310548961        6.02634596857227        1.09186463946313
H            4.10308368089891        5.22205635585930        0.58077125383982
H            4.39521485964838        3.08689610644935       -0.62073848120947
C           -5.84763588974891       -1.86227030456839       -1.02744181963430
C           -5.03065466418547       -2.23003259576947        0.02851116568420
Cl          -3.15720490062936       -1.91931833130359        1.87902917940583
H           -6.34009847933107       -0.29264600604560       -2.39919953128146
H           -6.64158758836451       -2.51811006594129       -1.34832924475076
H           -5.20498995924259       -3.15193819545977        0.55913400879141
