57
 energy: -107.648850309458 gnorm: 0.000756690545 xtb: 6.5.1 (b24c23e)
Si           0.14104420857176       -0.91581243749441       -0.27820567691041
O            1.35790935325830       -0.13442383237933        0.47871223147918
C            2.42577905579588       -0.53149993862236        1.31800960127790
C            3.12688114465390       -1.74286811532239        0.74806533060187
H            3.11931411416575        0.32575068120477        1.27207327530488
C            3.18670199341725       -2.97314443686674        1.38565954303657
C            3.69311523422770       -1.60972436586426       -0.51532497669195
C            3.79622969576940       -4.04965983635700        0.76349907962334
H            2.74540948985989       -3.11366405729226        2.35858166573322
C            4.29287688624657       -2.68664775879162       -1.13901207600127
H            3.64537962259761       -0.65247919393400       -1.01438320272364
C            4.34499004160271       -3.91314284723225       -0.49859787846698
H            3.82822520661031       -5.00466354167548        1.26701217162947
H            4.71417142672196       -2.56920956341429       -2.12639523446729
H            4.80732597364750       -4.75977201835782       -0.98426363947570
C            1.94180953516552       -0.68358388200622        2.76576689239598
C            1.37768204333059        0.56022451631736        3.24081240645041
H            2.78856092663250       -0.96412486993555        3.39685676256665
H            1.17607859275419       -1.46098776916246        2.80784672666119
C            0.90837074017387        1.60253569452619        3.59508130173430
H            0.49977067067118        2.50126998906487        3.94803965678082
Cl           0.51916114640666       -1.86820401944589       -2.05233253426358
Cl           0.04737970120162       -2.68420752474838        0.91909918478303
O           -1.43775097233242       -0.65105128285766        0.32636203046761
O           -0.09040858301595        0.64441020115900       -1.28769049349730
C           -2.17627286593151        1.58894092694305        0.17510069937013
C           -0.87933481101920        2.18632697187986        0.22206314503783
C            1.35089270053415        2.35924752676712       -0.64106505495836
C           -3.63656122961866       -0.25480366565433       -0.36821843604000
C           -4.76986665380653        0.58955271239782       -0.20637096690649
C           -3.30467351165464        2.41826111780556        0.35007943539235
C           -4.56501737846974        1.93820085362257        0.19984087423399
C           -0.62158631230622        3.26961621248488        1.09356739168523
C            0.61267585826859        3.82403244962638        1.16603516005092
C            1.64686748586483        3.38502296605135        0.29538913366488
H           -3.14203999728684        3.46346533797354        0.55538702528295
H           -5.42397004175941        2.57551045254539        0.33641514684339
H           -1.40470994959571        3.58183980215258        1.76451774900942
H            0.83498279901599        4.60079115495880        1.88047318838807
C            2.92685979487988        3.94325733286717        0.35287168279460
C            2.34914443410890        2.01251700646951       -1.57763442728732
N           -2.39015423414769        0.25411038990830       -0.06113380299819
N            0.11978496804861        1.76346783771134       -0.59392168526852
C           -3.86416792161756       -1.56767868219304       -0.82440125651039
C           -6.05906069054728        0.10958200296880       -0.44672515455449
C           -6.25668779917299       -1.19279787884482       -0.84768680609669
C           -5.16062951754621       -2.01597446785513       -1.04239822777752
Cl          -2.60683703894132       -2.68586474903370       -1.20204238023579
H           -6.89379613164977        0.77981123000733       -0.30890485645584
H           -7.25189139391539       -1.56958902240120       -1.02250325032440
H           -5.29446406428984       -3.02923770559600       -1.38431746536107
C            3.91010339918734        3.52290578573785       -0.51230983919366
C            3.60874218685726        2.57951935336240       -1.48552429321374
Cl           2.07322557777609        0.94998893927285       -2.90835728994955
H            3.12564771976790        4.70801724041746        1.08749412705530
H            4.90382265908399        3.93846769467503       -0.45874351246739
H            4.35629471171581        2.28327808245748       -2.20378720130881
