57
 energy: -107.647404697603 gnorm: 0.000992603852 xtb: 6.5.1 (b24c23e)
Si           0.14052064511995       -1.36647987155234        0.60714129946678
O           -1.35482168414356       -1.06883348153330        0.05163218046843
C           -2.30200096023974       -1.36492775952121       -0.94430427635354
C           -2.06418613251504       -0.47657691587418       -2.14208506790598
H           -3.26521197547218       -1.09164233800792       -0.48325489049726
C           -0.81181423790044       -0.42009136049519       -2.74045188292744
C           -3.08631931519040        0.32659202430502       -2.63091065681077
C           -0.58340762598549        0.43998244626726       -3.79991633844649
H           -0.01408202771108       -1.04742869703278       -2.37383583066088
C           -2.85985254506884        1.17622625227273       -3.69924966948624
H           -4.06338581981709        0.28570543053900       -2.16982081607606
C           -1.60525794563795        1.24071092376220       -4.28114070465810
H            0.39560934517553        0.47912169803802       -4.25462199843222
H           -3.66373099528651        1.79224108918758       -4.07572615865572
H           -1.42628949006298        1.90945816922250       -5.11041353175450
C           -2.36875938669953       -2.85005252385189       -1.33583063402467
C           -2.58730932615518       -3.65934317188300       -0.15619329203471
H           -3.19294653965839       -2.97813547387134       -2.04282896964260
H           -1.43522490580583       -3.15432048015397       -1.81123220234183
C           -2.75062103624433       -4.26388980394508        0.86309418030935
H           -2.87944001780770       -4.82724278993328        1.73792790025337
Cl           0.23925193656181       -2.35218922416109        2.38510353571346
Cl           0.75019766657573       -2.98723751669943       -0.63440345353485
O            1.48668341280002       -0.58427944721060       -0.10975956255623
O           -0.07323554308059        0.23536361816505        1.62305774179333
C            1.43096930718657        1.77199623393251       -0.03513687559626
C            0.00786072833747        1.88243668342666        0.02494599683970
C           -2.06386440367814        1.32963251723111        1.09416464602607
C            3.46934809372773        0.55654037246337        0.40369121619082
C            4.22838916926373        1.72957243925812        0.13727407515586
C            2.18796832907399        2.92683405818401       -0.32103485984013
C            3.54448956039357        2.91023882068805       -0.26880115855871
C           -0.67659319177634        2.75599997308825       -0.85036387548204
C           -2.02659354515668        2.86004830119911       -0.81040952289083
C           -2.76756131614803        2.15356265620419        0.17561622499253
H            1.65977586627079        3.84245271172035       -0.53049368129291
H            4.12085346020541        3.79487037216684       -0.48622355653488
H           -0.10864620586773        3.26615644601703       -1.61037985567088
H           -2.55883606484937        3.46619883409093       -1.52538742332831
C           -4.16088295386153        2.25086174362483        0.23549027650926
C           -2.80533108295858        0.69586927649327        2.11591460377481
N            2.10481698770269        0.60055964475992        0.20117495642870
N           -0.71000552903679        1.18573690033810        0.94455014497032
C            4.16562185225988       -0.58374519895946        0.84850928168569
C            5.61836199289061        1.72505027081218        0.27298783926546
C            6.27919388015814        0.58297627715637        0.66664932745373
C            5.54983390164931       -0.55681052299677        0.95892363729375
Cl           3.39440131108216       -2.04727822806795        1.34127398285313
H            6.16081007103343        2.63326958946610        0.05938472414417
H            7.35356759427999        0.57369424586016        0.75932075420423
H            6.04841829237874       -1.45149533074105        1.29515339466394
C           -4.86764375154509        1.56362507961124        1.19450509077463
C           -4.18501132827005        0.80753567154860        2.13810736777116
Cl          -2.08241966083553       -0.18545655635540        3.40415116841570
H           -4.66560388852951        2.87431334883592       -0.48613583913086
H           -5.94387392440106        1.62359884347172        1.23303095982507
H           -4.72489104673096        0.29983772944422        2.92085607789412
