57
 energy: -107.652809517564 gnorm: 0.000280580911 xtb: 6.5.1 (b24c23e)
Si           0.26990697487383       -1.06280607151875       -0.41141533971935
O            1.32853023883521       -0.15184507328972        0.43985103509738
C            2.26331683917448       -0.55739006282112        1.41684583381743
C            3.31670528366195       -1.45264904560099        0.81755916412990
H            1.73125189802716       -1.09970863523587        2.20737520822887
C            3.95577100081036       -1.07875894890394       -0.35662678232694
C            3.63640968048738       -2.66496895204411        1.41126862971939
C            4.89599081994954       -1.91047676046077       -0.93619593543795
H            3.69861777516220       -0.14127932449528       -0.82606798765552
C            4.58305714589601       -3.49303447032439        0.83483846233658
H            3.12768406286030       -2.96742585984788        2.31427524423904
C            5.21213603095298       -3.11922921815791       -0.34024103412029
H            5.37703522937914       -1.61692922342580       -1.85760476726489
H            4.82006030502076       -4.43909244963516        1.29871194550124
H            5.94205207116194       -3.77252053276073       -0.79541473592230
C            2.90015065617398        0.71330279906537        2.00752834133483
C            1.92405987198699        1.48789958800831        2.74040386150931
H            3.71055931034994        0.41583931430506        2.67797213057377
H            3.31467104437304        1.31663132738000        1.19552318758842
C            1.07910427266246        2.09281632582488        3.33391824252288
H            0.35890977587451        2.62504451388363        3.87966394041746
Cl           0.90708476418302       -2.02534491190726       -2.10246165176205
Cl           0.27284881583766       -2.78111020112333        0.86037021454848
O           -1.37462541177210       -0.95210540939804        0.04731778668976
O           -0.01803725371376        0.42458344951606       -1.49388287813108
C           -2.31941630480895        1.19130877067050       -0.25638580236013
C           -1.09999339913636        1.92503653041330       -0.12664557284043
C            1.15010813548476        2.33597880097742       -0.84561943794399
C           -3.53217556866862       -0.81183061868431       -0.84461201473520
C           -4.75445263333968       -0.08506572392316       -0.81726969110109
C           -3.53720443499319        1.90367051729170       -0.21184955392224
C           -4.72356744773444        1.29034985874830       -0.45237409912176
C           -1.03306118775316        3.05977395233034        0.71494647438394
C            0.11752214631731        3.76383485388626        0.84298594338124
C            1.25146594410807        3.43077203445618        0.05325039621423
H           -3.49944949013208        2.96579791751672       -0.03451571270474
H           -5.65092420678185        1.83908107633406       -0.41784513707678
H           -1.89231881540579        3.29705782584305        1.32015330173387
H            0.19572257351899        4.58445266782289        1.53764710725770
C            2.44198271819163        4.15540813383919        0.15381070722972
C            2.23962035847678        2.08492781806829       -1.70854912063294
N           -2.37611405500951       -0.16507842206416       -0.45573896709299
N            0.00401553913618        1.58913749886659       -0.84233641610305
C           -3.58316668110329       -2.15771600628197       -1.25742201155774
C           -5.96184418778215       -0.70571183708170       -1.14476617340262
C           -5.98999769878193       -2.03539637698996       -1.50084546726839
C           -4.80350197559417       -2.74637587306731       -1.56340080205017
Cl          -2.18911727843470       -3.15054275232993       -1.47314648079643
H           -6.86866662835413       -0.12228222351140       -1.10911678941088
H           -6.92234679083982       -2.52058715400630       -1.74188173429242
H           -4.80333906052008       -3.78014442412144       -1.86785941435798
C            3.52209424765227        3.83444315427946       -0.63586204771771
C            3.40612266655373        2.81988001958188       -1.57706616743072
Cl           2.18275874893117        0.93978908217630       -3.00009226442952
H            2.49485548544700        4.96786205392706        0.86130194186326
H            4.44780143615722        4.38100112396718       -0.54915898273470
H            4.22752464297953        2.59728655401430       -2.23905712690949
