57
 energy: -107.647783561230 gnorm: 0.000894387615 xtb: 6.5.1 (b24c23e)
Si           0.25383274078125       -0.29140358074405        0.44972432565549
O            1.08626535657251       -1.47568500581177        1.16620215658208
C            1.53151232741971       -2.73876350608115        0.72004360564336
C            2.78981069420906       -2.56732462866774       -0.09081037462377
H            0.75168833509541       -3.20691869796738        0.10883013335734
C            3.80642014076835       -1.75268301505327        0.39166095963151
C            2.94235790984931       -3.19469498800538       -1.31846551838853
C            4.96323195214305       -1.57047360136726       -0.34387126112730
H            3.67348464156610       -1.24532937161679        1.33610980890783
C            4.10130512670347       -3.01232220935844       -2.05296486736820
H            2.14615420165349       -3.81502695356112       -1.70350815772417
C            5.11301462562567       -2.20166291522887       -1.56725749621211
H            5.74680089900799       -0.93079279683121        0.03598827662917
H            4.21110925511616       -3.49909065531465       -3.01102121150401
H            6.01511157697520       -2.05686118765306       -2.14387589869478
C            1.80058988001219       -3.60525879109611        1.96211175473830
C            0.56880800100033       -3.95991659029536        2.63285548707331
H            2.32454927334183       -4.51305635116760        1.64972045845328
H            2.43870798461798       -3.04313820995859        2.64804787817962
C           -0.46607786423832       -4.24427042464580        3.16113304209761
H           -1.36802421003255       -4.48991705278556        3.63713156342396
Cl           0.86597307168651        0.94721228588054        2.10603112224884
Cl          -0.28200733403414       -1.46766154192219       -1.32977408654498
O            0.53125692393818        0.95670070010051       -0.71624842630848
O           -1.37117161415575        0.09836017744345        0.84242652068520
C           -1.07176539257206        2.57407715681840       -0.36455924414723
C           -2.12427335480133        1.64648592715118       -0.70162691113108
C           -3.19399546216764       -0.50748569674088       -0.51364537044652
C            1.26055931599719        3.09148002588985       -0.05192867922324
C            0.91375803433715        4.41508992684328        0.33739176980705
C           -1.40914844243244        3.90966356955382       -0.07904893963101
C           -0.45402736840051        4.80050106004772        0.29939227612756
C           -3.11138884609437        2.05970107439382       -1.61509392076293
C           -4.07248367804617        1.19588320435394       -2.03768408156346
C           -4.12941158831981       -0.12596128540494       -1.51680011773906
H           -2.45197296716175        4.18319234892554       -0.08527346890204
H           -0.71702753416341        5.80556711472030        0.58752984218332
H           -3.03383569840387        3.05094817032126       -2.03196167472645
H           -4.79250730359276        1.48931738544642       -2.78450367521011
C           -5.09505882845757       -1.02981156426086       -1.96698355040965
C           -3.32264201257207       -1.79213435714947        0.05307933437800
N            0.24579390975969        2.23326818747001       -0.37556242038497
N           -2.24051548901509        0.40585540238550       -0.14902836025197
C            2.62794448198189        2.75555211710304       -0.10462331038392
C            1.90442628442415        5.31802959227190        0.73259786081155
C            3.22881159690757        4.94583877756670        0.72966559350854
C            3.58189736815362        3.67653871687509        0.29644487004283
Cl           3.23002825306004        1.24280565458493       -0.68305644234693
H            1.60858184089183        6.30962612425856        1.03749973723447
H            3.99434572247087        5.63672838838440        1.04508756270155
H            4.61870770611502        3.38440758894048        0.25876615937522
C           -5.16684677428165       -2.29641833362369       -1.43412337201260
C           -4.29228012110821       -2.66184362607359       -0.42257386085536
Cl          -2.34856285216616       -2.38763064693382        1.35041497035097
H           -5.78063624861729       -0.71279930682199       -2.73730635677686
H           -5.90463756909560       -2.99966461886546       -1.78627030946252
H           -4.35425387822469       -3.64233416673604        0.02057929504230
