57
 energy: -107.576694173240 gnorm: 0.000382552125 xtb: 6.5.1 (b24c23e)
Si          -0.21965422158387        1.24054345478845        1.39523304377047
O           -0.44153935030011       -1.27082943451289       -2.67988055364597
C            0.08271474653849       -0.18068124772328       -2.73280409059504
C            1.51118338557031        0.07375765737402       -2.53209802999443
H           -0.51043971866018        0.72504062185149       -2.94946073649413
C            2.42260721123035       -0.98208537251257       -2.58710540966542
C            1.96642580881818        1.36706638862998       -2.28130277290463
C            3.76931564387236       -0.74505708466576       -2.40077179251234
H            2.05273829496301       -1.97587347359574       -2.79412078279616
C            3.31175041234911        1.59126025832016       -2.05866477869483
H            1.26202443678724        2.18224584555193       -2.22905221978934
C            4.21249637154725        0.53965536023117       -2.12392291171909
H            4.47595951768954       -1.55923153764008       -2.46194146560555
H            3.65865791854712        2.58876132508445       -1.83718910475371
H            5.26466139940270        0.71982635782302       -1.96056271717404
C            1.27240643227416        4.22669144730316        3.54783304787245
C            0.82937912619873        3.02378499771489        3.36361370390312
H            2.31966924647243        4.46466850022692        3.45788120267122
H            0.61275831559716        5.03823576925124        3.80773683251390
C            0.38378475308050        1.83614889450964        3.11218250668948
H            0.30843228903411        1.12195920194001        3.92074516648648
Cl          -2.22526836823366        0.98825765606189        2.09374133248284
Cl           0.39709837529805        2.86790724487719        0.29216775564626
O           -0.72765428592203        0.54153425626378       -0.25186773789057
O            0.77289647531602       -0.13925366451710        1.61434258792038
C           -1.13519767412470       -1.70000912943930        0.07743433663291
C            0.26076836057904       -1.97824341787812        0.21443823452200
C            2.54316554769351       -1.32375521125990        0.66441614800100
C           -2.90915213919916       -0.22038093893498       -0.56660669525034
C           -3.86015776184062       -1.25824597723592       -0.37532333183376
C           -2.07239631223686       -2.74632300751642        0.23924745612267
C           -3.39752812093505       -2.52711338023633        0.06416330328082
C            0.72352756100915       -3.23308940045119       -0.23157081461388
C            2.04218438964999       -3.55513432975832       -0.20150623663031
C            3.00150179975400       -2.59774642583611        0.23157570469664
H           -1.71528450504963       -3.70385582740506        0.58046259414804
H           -4.11949349019724       -3.30665147377850        0.24918700385106
H            0.00605881281414       -3.91384361601886       -0.65737636418529
H            2.38746127901931       -4.51671274701447       -0.54585414705218
C            4.36472996894459       -2.89868369904438        0.21988106079075
C            3.51443853371474       -0.36875421536236        1.01477365700273
N           -1.59877197210921       -0.47233358033281       -0.26157830636113
N            1.18249605631839       -1.10475859059395        0.73319539846098
C           -3.38015505320695        1.01147193471209       -1.06981310203310
C           -5.21953514703646       -1.03264698761704       -0.61016892378971
C           -5.65690454353598        0.19364578675509       -1.04985404080331
C           -4.73254570864553        1.20075070957578       -1.29126402601747
Cl          -2.35913385696531        2.33589431393539       -1.48746231880586
H           -5.91367290529518       -1.84107358121634       -0.44068504043962
H           -6.70551961418286        0.37583593655758       -1.22309975358755
H           -5.05914980425760        2.15668788770479       -1.66836381784249
C            5.29192003465527       -1.96355310570051        0.62365722271190
C            4.86206114489778       -0.70426086560121        1.00378817065566
Cl           3.15122564263039        1.27308259604985        1.41343001401352
H            4.67384595224014       -3.87919803164973       -0.10791134027361
H            6.34423878808448       -2.19949974576443        0.63017818630140
H            5.57412051189985        0.05180467451828        1.29116069703952
