57
 energy: -107.649313921156 gnorm: 0.000784683979 xtb: 6.5.1 (b24c23e)
Si          -0.29909209085897        0.57469428508476        0.88535844231951
O            0.29068131565613        1.72149581035528       -0.08495878052966
C            1.29223769737859        2.68862389095398        0.09281976006615
C            2.57912579268173        2.21708351736926       -0.53791773335243
H            1.44633619178531        2.86279713120881        1.16581738593666
C            2.55124291425770        1.28757697876792       -1.56859241201596
C            3.80117017317974        2.70359087516785       -0.09304476388421
C            3.72933993445634        0.83594370605078       -2.13556945810324
H            1.59774206143651        0.91130751577283       -1.90808661023641
C            4.97820951899249        2.25793711491369       -0.66677104881055
H            3.82720818003765        3.42075022284205        0.71482552089735
C            4.94514880541036        1.32051361295744       -1.68579515819485
H            3.69821546286380        0.10153794524244       -2.92786781297294
H            5.92522042271644        2.63669203346068       -0.31106749943744
H            5.86546745438077        0.96600475089902       -2.12643992073850
C            0.80877354536203        3.99220875305405       -0.57167748040303
C           -0.41816176157279        4.44239631432231        0.05019984638987
H            1.58424450698785        4.75583662933299       -0.47452195800560
H            0.62914923455196        3.79680934012295       -1.63245597118320
C           -1.43809129290796        4.76460007816497        0.58584283608490
H           -2.33466033033178        5.05570055282288        1.04554101730320
Cl           0.61120919527554        1.14635042738497        2.73349155609189
Cl          -2.20328778617637        0.70903427448957        1.76430705320561
O           -1.04024704858879       -0.05334796008559       -0.66360352643029
O            0.53070540522298       -0.92551054841578        1.06366032685284
C           -1.62805538574630       -2.23350706063466       -0.30666862899663
C           -0.24481401065614       -2.60405558307061       -0.39534494244212
C            2.11383349632545       -2.13652037081132       -0.19355991707195
C           -3.32314779650240       -0.57099403850616       -0.65858741176272
C           -4.33025666093522       -1.53337993729738       -0.37528733630309
C           -2.62110476338021       -3.20785249291098       -0.07611766702217
C           -3.93363864570335       -2.86214882339232       -0.06100137427882
C            0.04918996777782       -3.77453072764892       -1.12249853164319
C            1.32293951277973       -4.06784620849386       -1.48613716403273
C            2.39154810744008       -3.22298951508771       -1.07436860719732
H           -2.30713313118585       -4.21052645527650        0.16487115415959
H           -4.69505831872495       -3.58507288494753        0.18455407442808
H           -0.77581375310139       -4.37573236877956       -1.46810544449258
H            1.54490400251470       -4.92392694803513       -2.10204370026662
C            3.69295472181399       -3.48977690477363       -1.50210579184645
C            3.22437377545728       -1.43327718717941        0.31707024290326
N           -2.01510260603160       -0.95849023475958       -0.55941070482995
N            0.79402665682458       -1.86364845946403        0.10493139004875
C           -3.73046680814342        0.72361773264901       -1.04822580120348
C           -5.68061801718054       -1.17314169284243       -0.41084638911910
C           -6.05076382212173        0.10900472030386       -0.74195001025676
C           -5.07701227130952        1.04183513748963       -1.07277904466466
Cl          -2.63695600893427        1.96028879922174       -1.53764730150937
H           -6.42195770281118       -1.92077799444598       -0.17553169769917
H           -7.09114811598361        0.39225315873192       -0.76045312722824
H           -5.35892968167757        2.04067317632880       -1.36378421343691
C            4.74888010353455       -2.72825435315156       -1.05280494929689
C            4.50723664226394       -1.72685596305328       -0.13077428664487
Cl           3.14199244410963       -0.21650951351541        1.53598471529526
H            3.85246404022712       -4.31156589603977       -2.18272838414508
H            5.75427735910695       -2.92538546098879       -1.38864521780223
H            5.32199716775222       -1.14919190186543        0.27342745750068
