57
 energy: -107.647856181098 gnorm: 0.000397637856 xtb: 6.5.1 (b24c23e)
Si           0.01122727712011       -0.25175384804627        1.19065589524060
O            0.12970866941696       -1.75684437132738        0.61961470290296
C            0.61276713549475       -2.32418485622199       -0.57292987321128
C            1.92659061607466       -3.02895470943633       -0.33553412667360
H            0.75039370024924       -1.53698325567999       -1.32162225007644
C            2.35134039035767       -3.34283143506075        0.94663017150833
C            2.72569481919375       -3.36802161174841       -1.42171045639843
C            3.56512568571103       -3.97970740621801        1.14123508597471
H            1.73164891750162       -3.07394624277391        1.78820542604403
C            3.93497961591555       -4.00830437667338       -1.22556707455232
H            2.40151177775495       -3.11598348196347       -2.42242138565543
C            4.35839421708414       -4.31374715296618        0.05776914927831
H            3.89116639057306       -4.21262784226664        2.14411785558406
H            4.55178699180079       -4.26287765871448       -2.07529664615572
H            5.30671436535055       -4.80776928374014        0.21064810103653
C           -0.44896555182839       -3.31845733173735       -1.09075563491080
C           -1.51125109417110       -2.62666830164574       -1.78548200808254
H            0.02381060970801       -4.03273052252184       -1.76954347769307
H           -0.85528452977939       -3.85994959502503       -0.23329447209698
C           -2.35507252057069       -2.00969837162767       -2.36867429741532
H           -3.11576919619036       -1.50121668294725       -2.88151405385304
Cl           1.57191199877567        0.83946161005828        2.09128804207061
Cl          -0.66563323448985       -0.92119010879130        3.06839005702192
O            0.52673012929376        0.47831844018148       -0.46261077919684
O           -1.51353765958225        0.51172768337949        1.00362383693184
C           -0.32635097502209        2.60474984995567       -0.54248191295346
C           -1.64758836356275        2.08455874255899       -0.73764578830438
C           -3.35003254813297        0.39428924972109       -0.46473364775663
C            2.04784555371790        2.26748356794818       -0.46480782379075
C            2.24544597881083        3.66923141711614       -0.32670703763841
C           -0.13451428318920        4.00053790222107       -0.46000717203437
C            1.10826603425264        4.52093806518220       -0.30715877099321
C           -2.48928622082209        2.78979101826571       -1.62127662238235
C           -3.71688627575100        2.31568920055828       -1.94944562316589
C           -4.17439957021897        1.08619057500909       -1.39919685563438
H           -1.00600740517953        4.63402750203183       -0.43584707086955
H            1.25503695584507        5.58020665447918       -0.17013683345178
H           -2.10447322178099        3.68462676301121       -2.08234052693148
H           -4.34975460688737        2.84091393166275       -2.64637803544252
C           -5.42185834226531        0.58198152097021       -1.77367159759145
C           -3.85477837225446       -0.81313669698349        0.06240930701737
N            0.76224013115714        1.79209306788447       -0.50753130551470
N           -2.13207765253938        0.95469830129072       -0.13385521839666
C            3.19828980404174        1.45665014440371       -0.56623538353487
C            3.53402601187511        4.19951478458526       -0.21354491493148
C            4.63455698479221        3.37740931372385       -0.25664686875168
C            4.45874703705483        2.01442278478217       -0.44992362827917
Cl           3.15011637540434       -0.23986457590435       -0.86973632322499
H            3.64347011830439        5.26601850117112       -0.09296213504822
H            5.62921451207566        3.78159977319255       -0.15732237917017
H            5.31358612929008        1.36117175176906       -0.51887048255262
C           -5.89352398670439       -0.59331146780920       -1.23366828046128
C           -5.10813169767785       -1.27568769215540       -0.32209205619791
Cl          -3.01337426431808       -1.82465949732677        1.17053092561056
H           -6.00787210734759        1.13812075793595       -2.48901262912751
H           -6.85936622594237       -0.98145650772790       -1.51517389600751
H           -5.45362402779486       -2.20135399001039        0.10770379988808
