57
 energy: -107.652633871276 gnorm: 0.000712745588 xtb: 6.5.1 (b24c23e)
Si           0.34130299918110       -1.40060817731842        0.14355611902913
O           -1.18267545528412       -1.03909642963498       -0.30445488638952
C           -2.04711762733546       -1.47669523596199       -1.32939147689473
C           -2.51517581560071       -0.21834200460914       -2.02710754120084
H           -1.47652244293264       -2.09702083967325       -2.03407238501920
C           -3.82446989115275        0.23885563142118       -2.00509355920589
C           -1.54423904526808        0.55396568945804       -2.65826291098058
C           -4.15543375588586        1.44199318572907       -2.60708820965724
H           -4.60065192446658       -0.33529453152744       -1.52435398573076
C           -1.87277588024062        1.75849280830875       -3.24932319346783
H           -0.52457163070012        0.19688377106061       -2.67901229712677
C           -3.18328196598198        2.20718693017176       -3.22450328693477
H           -5.18101395781288        1.78125706799639       -2.58911210602212
H           -1.10787937720328        2.34608607912285       -3.73594725100187
H           -3.44482829563622        3.14617491787942       -3.69032638086044
C           -3.16316473270156       -2.32813410460171       -0.71124671274076
C           -2.58967809790965       -3.48737499270893       -0.05790480307735
H           -3.84739009444641       -2.64888212290297       -1.50070533607766
H           -3.70647699951698       -1.73604150708127        0.03110326882112
C           -2.06403611805922       -4.40927354501154        0.49357440951323
H           -1.60604119740008       -5.22070954038033        0.97429309259157
Cl           0.71493710186202       -2.73931189447702        1.63422939851855
Cl           0.81609803273507       -2.67269725303480       -1.50603221419904
O            1.60629275645758       -0.41133178965664       -0.46121163781856
O            0.10025769263880       -0.12808905946969        1.49452945006000
C            1.55717015643496        1.81618798458359        0.30178445211498
C            0.13197874297984        1.89017822512719        0.40687978287341
C           -1.92589900920913        1.02439325278381        1.28086286237309
C            3.62179067263709        0.56368552760868        0.25111845422825
C            4.35593981232437        1.77587962641112        0.38925436885380
C            2.29116447614111        3.01574141398013        0.40124568559215
C            3.64774686776439        3.00966051429762        0.42755181725669
C           -0.56482710265390        2.98025574726179       -0.16014402590213
C           -1.91534098558952        3.05712587838984       -0.07748280795863
C           -2.64226478670624        2.07996054544049        0.65489024817364
H            1.74467992631603        3.93725784770614        0.51693917299995
H            4.20737130916308        3.92663384573009        0.51657050737511
H           -0.00616947312675        3.70046716528418       -0.73472555209914
H           -2.45963059647480        3.84632860879369       -0.57021014975412
C           -4.03476744956427        2.14848553584333        0.75210375182205
C           -2.65707339400287        0.10546768377672        2.06593422192308
N            2.24857488298416        0.64418886631476        0.12955694822468
N           -0.57148948450362        0.95289396692739        1.09277989024492
C            4.35708074692653       -0.63859065613524        0.23326362774209
C            5.74911903929330        1.76459575261197        0.48214042446917
C            6.44417235897388        0.57712899016366        0.43728870342855
C            5.74399860479704       -0.61032316117804        0.31776413621294
Cl           3.65185052966111       -2.21047556093502        0.14890538439288
H            6.26635264729089        2.70567892801117        0.58563204045952
H            7.52046504805509        0.56582296964881        0.50034516727817
H            6.26832729316378       -1.55156663905284        0.29656597625589
C           -4.73096139226335        1.20299617637918        1.46768054678303
C           -4.03737931002645        0.20031470330368        2.13176409492856
Cl          -1.92861528705060       -1.13931370668995        3.00707103736562
H           -4.54689876605900        2.95600363293038        0.25306964792264
H           -5.80679866901100        1.24444494099811        1.53290908595447
H           -4.56842168600454       -0.52470265941699        2.72782193433764
