63
 energy: -105.893502546761 gnorm: 0.000643337502 xtb: 6.5.1 (b24c23e)
Si           0.16866694350169       -0.28636079127432        0.45358292851257
O            1.23844251435924       -1.32708271573515        1.07806406938163
C            1.79306379853230       -2.54471494373836        0.62764936485982
C            3.01356042908488       -2.25585640228182       -0.20843106160729
H            1.05219563256436       -3.08633863378914        0.02962398940446
C            4.00374007315102       -1.41650567194154        0.28743567507818
C            3.15634609293144       -2.80370291050056       -1.47480421560748
C            5.12468312411862       -1.13407652158956       -0.47207179204300
H            3.88326221646806       -0.97562495020350        1.26618513611650
C            4.27976600164666       -2.52189219578619       -2.23286665590837
H            2.38128933614824       -3.44453669455640       -1.86867712790507
C            5.26574073575154       -1.68856844247475       -1.73302655972681
H            5.88903776232954       -0.47968239698859       -0.07866553269390
H            4.38303819827935       -2.95127227681862       -3.21861106257174
H            6.14110131294420       -1.46883154928383       -2.32677225043433
C            2.17128629958268       -3.37997006502556        1.86378246845943
C            1.00117199270415       -3.91416077774906        2.52422245634555
H            2.82039841345353       -4.20129006095700        1.54745355354564
H            2.71848494455752       -2.74138453404754        2.56088917640676
C            0.01658652198198       -4.34842975593388        3.04699694087879
H           -0.83304541145918       -4.73897494257331        3.52117911375095
Cl           0.75590466771744        1.03928423840601        2.05056302523214
Cl          -0.41913482119484       -1.60455838960001       -1.21519303406438
O            0.31170210625089        0.91011599811889       -0.76360315809724
O           -1.44643761188849       -0.03398686884548        0.94936758088548
C           -1.40295442853360        2.40649661342640       -0.37590414066468
C           -2.40014999799774        1.38740832976535       -0.60777500145611
C           -3.35033437726974       -0.80207587839061       -0.22100922190697
C            0.89434370413417        3.14868619653206       -0.27987617722118
C            0.44610993407268        4.44765991345117        0.08387142893649
C           -1.84268285686949        3.71737790145628       -0.11836701859750
C           -0.94927754030535        4.70624593637009        0.15122675642611
C           -3.45148169780652        1.69238454207655       -1.49132228784416
C           -4.37607727189214        0.75114667805287       -1.81909026458317
C           -4.33933696579506       -0.53057082879437       -1.20660253582597
H           -2.90437191387167        3.89407302265300       -0.05414882674365
H           -1.28165038169484        5.69478700687603        0.42525559193937
H           -3.45034307484187        2.66021254297089       -1.96658136195141
H           -5.14060486686782        0.95477381122026       -2.55177724854023
C           -5.27965816454845       -1.50642217978055       -1.54941625718159
C           -3.39110487607696       -2.03012358671658        0.47524986725618
N           -0.06381372765628        2.18447598014740       -0.47185052610740
N           -2.41539587309043        0.17643980790675        0.01668309923292
C            2.27570708198314        2.92007891475152       -0.46045994131994
C            1.37133087484866        5.46180125307454        0.34892136537212
C            2.71755192430808        5.21544480505192        0.23264617010714
C            3.14651877021429        3.96312902276393       -0.18606040625698
C            2.87267377342216        1.63457588303230       -0.94323176483580
H            1.00596724113460        6.43462580633074        0.63963504886516
H            3.43860939127321        5.98966634778370        0.44424218777009
H            4.20510954935273        3.78942490434688       -0.30900653944556
C           -5.26877824697746       -2.72653639191222       -0.91851375376703
C           -4.34466747341323       -2.96078867328665        0.09031792882808
C           -2.49498471169918       -2.40424015373808        1.61519529034357
H           -6.00907528247062       -1.27887622524396       -2.31148263873741
H           -5.98264661828339       -3.49032660804491       -1.18521476054890
H           -4.36758627995478       -3.90940700121834        0.60558040727084
H            3.92257307096445        1.78240267915017       -1.18519641341729
H            2.80883436226339        0.87039683500556       -0.17222896986734
H            2.36199257125950        1.25630886192509       -1.82489021194922
H           -1.49175892343021       -2.63416048547051        1.26235159675440
H           -2.41150940661849       -1.60375301887765        2.34481840763033
H           -2.88815956479296       -3.29014330946663        2.10778109382565
