63
 energy: -105.896591705658 gnorm: 0.000631123388 xtb: 6.5.1 (b24c23e)
Si          -0.39467393838220        0.75431569161123        0.82435214664818
O            0.19443892572245        1.78194609623690       -0.28043963103004
C            1.25936208612127        2.69415350213568       -0.24001303828446
C            2.54055076074939        2.02089229091622       -0.66839888841657
H            1.36810011599473        3.08440656831990        0.78044869944745
C            2.49960230372769        0.91142129673691       -1.50241461625878
C            3.76973912937512        2.50420290978639       -0.23862996879398
C            3.66967252214705        0.28551055425715       -1.89250773222054
H            1.54042936433039        0.53787426341641       -1.82832332810822
C            4.93960534543170        1.88177067767187       -0.63590215529249
H            3.80488000651123        3.36134481996059        0.41822839997210
C            4.89207001516852        0.77079547080336       -1.46145925528260
H            3.62761512347516       -0.58437914085797       -2.53220286225821
H            5.89152706608797        2.26177356569553       -0.29502401230543
H            5.80571749851754        0.28191875723058       -1.76591617953184
C            0.91684946532917        3.85139608580646       -1.19838869494959
C           -0.28122478273747        4.53235424674875       -0.75680163336733
H            1.75543337371835        4.55101654205542       -1.23146997680126
H            0.75428727247230        3.43879731717057       -2.19749259529587
C           -1.28282179096667        5.05522159117620       -0.36350192947168
H           -2.15561214072883        5.52622297436221       -0.02261135651482
Cl           0.51966158472254        1.61700755487958        2.57064916560512
Cl          -2.29556456772541        1.02958255849423        1.66792972863105
O           -1.11001826653694       -0.06057565552496       -0.61780304052964
O            0.40986191784862       -0.68921287068654        1.27376507804526
C           -1.73651364876750       -2.16063306458585        0.03612221013007
C           -0.35413452913477       -2.55505198652160        0.04124583754649
C            2.01074737485755       -2.15616530232452        0.35153567523352
C           -3.40912057116305       -0.55321362022127       -0.60468542328597
C           -4.42337603945337       -1.45601244030375       -0.18739321943948
C           -2.74108242906168       -3.08847557079712        0.37566049753181
C           -4.04982706274800       -2.72977224341946        0.32045143838071
C           -0.06414499707853       -3.79907776269713       -0.55269958586457
C            1.21498044959075       -4.15291968739010       -0.83740352250049
C            2.28830437909782       -3.31265937605787       -0.43093860070215
H           -2.44118362678280       -4.05112314002290        0.75736180802852
H           -4.82424893565658       -3.40274673248561        0.65300450089509
H           -0.89180658873712       -4.41002519002414       -0.87452337767874
H            1.43772976066298       -5.06186056520057       -1.37239646573957
C            3.60284525282619       -3.65708075661070       -0.75223333069451
C            3.09645339281263       -1.46985912975588        0.93784611208805
N           -2.10660396040427       -0.93735961580078       -0.41485398526473
N            0.68314588208533       -1.79353110056884        0.50622048593247
C           -3.77138355813424        0.66785942921939       -1.21867150714562
C           -5.76983465722807       -1.09149035318959       -0.29056991328061
C           -6.11445627465213        0.12777289506374       -0.81934418041085
C           -5.11913376858302        0.97477169300950       -1.29329102099716
C           -2.79958561470951        1.62960461161484       -1.82619494286538
H           -6.52354720034446       -1.78555136141464        0.04822584175015
H           -7.15011660848280        0.42205250356904       -0.89046781635972
H           -5.40551983811437        1.91215468907490       -1.74645800881973
C            4.65176815734019       -2.90542857020118       -0.27686221329447
C            4.38404234246725       -1.85389705528639        0.58370619931755
C            2.98311168120460       -0.38505405180197        1.95828998807544
H            3.77390354452325       -4.52837324924024       -1.36574647490104
H            5.66980971622787       -3.15433730973318       -0.53281467289967
H            5.20944338611936       -1.30691119042024        1.01334117108863
H           -3.33335495925692        2.35415663551001       -2.43691929639209
H           -2.24885625022871        2.16980743927637       -1.05933447971638
H           -2.06842538470688        1.11483558569252       -2.44344693271308
H            2.66860420948043        0.55239467137978        1.50787076829531
H            2.26002810638153       -0.63295327318341        2.72945767922344
H            3.95038547738289       -0.22092512255651        2.42683543380779
