63
 energy: -105.806620679468 gnorm: 0.000361867585 xtb: 6.5.1 (b24c23e)
Si          -0.20191541387916       -0.30548653795098        0.49579441072917
O            2.57108145898500       -0.88831715055509        0.10755380676668
C            2.88181224335198       -2.05283030531846        0.18858858025555
C            4.25649833896367       -2.55256774561364        0.11872782247464
H            2.11540196027989       -2.83359367422276        0.32131435273844
C            5.31704687867866       -1.66347526865522       -0.06422211180362
C            4.51298280300560       -3.91912513625871        0.22508185963307
C            6.61202656405666       -2.13576126160045       -0.14178497969761
H            5.09721100818175       -0.60898168244529       -0.14063847906764
C            5.81106109890200       -4.38616948507003        0.14752242943145
H            3.68970029475719       -4.60294172427972        0.37126604142755
C            6.85916676146064       -3.49662573795181       -0.03689604035984
H            7.43249337206706       -1.44799892000485       -0.28350843491610
H            6.01125602216108       -5.44405289959680        0.23134850176845
H            7.87252158673847       -3.86562451996442       -0.09755703582542
C            1.24452490125866       -1.53447763686789       -3.02722139840846
C            0.47998316019034       -1.57883284103257       -1.98216445380328
H            2.22311899000299       -1.98768406284294       -3.03076468218457
H            0.93524554139937       -1.04916950199315       -3.93855186627155
C           -0.25400208024741       -1.59396949867700       -0.91828141281327
H           -0.92721538351198       -2.42693949469809       -0.75652452617197
Cl           0.82134176330995        1.03943426854320        1.73672935215761
Cl           0.14973830059629       -1.91783153601991        1.94215137861459
O           -0.31222136470837        0.92132546008468       -0.81521556761474
O           -1.81477020912897       -0.04350984683204        1.04068081016888
C           -1.91227162392614        2.45173832532381       -0.24270084784731
C           -2.90811016368277        1.42078353337014       -0.42114704364729
C           -3.78410742907207       -0.78534918820961       -0.02717393687942
C            0.36934716641325        3.16155058982232       -0.45390211734458
C            0.00297728353327        4.43769528620709        0.05476920616991
C           -2.30512506067375        3.74958911915920        0.11842116275347
C           -1.36366763256058        4.70942569442389        0.33081164016162
C           -3.98110335013296        1.69706858139692       -1.28132890666544
C           -4.83042340434474        0.70437714021673       -1.66747159738538
C           -4.73106746591654       -0.58113269005567       -1.06833741663246
H           -3.35086317537107        3.93251797028673        0.30836796137134
H           -1.63629733574885        5.68504500165813        0.70060797946383
H           -4.04182942551738        2.68387027085655       -1.71214280845997
H           -5.58823520226708        0.87610191980658       -2.41447660564552
C           -5.59149367035791       -1.61671527581795       -1.44151613819761
C           -3.87360412702864       -1.95145589442183        0.76012195536702
N           -0.60891930807483        2.20177154394687       -0.51557509555880
N           -2.84150956409390        0.20082909679730        0.18127137399490
C            1.68906487013606        2.94695489020616       -0.90733807102180
C            0.98155297858444        5.42038992047434        0.23977515078737
C            2.28681025248724        5.16800767609600       -0.10539000130282
C            2.61519613732368        3.95558789416060       -0.69965015110026
C            2.12909031757528        1.72261481337548       -1.64081120328269
H            0.68819323248632        6.37495667331763        0.64906059912183
H            3.04916773011311        5.91596477570826        0.04955302498242
H            3.63182105998658        3.79140847418687       -1.02482986275901
C           -5.55986327298335       -2.81841187544996       -0.77052131366188
C           -4.74093981726569       -2.95277643696800        0.33981272689366
C           -3.16773392718093       -2.14386550668782        2.06171306952358
H           -6.28496692832328       -1.44960226649674       -2.25122381379473
H           -6.20483016034525       -3.63030994172190       -1.06921730081544
H           -4.78767475492922       -3.86148173390340        0.92123139979699
H            3.08000245352412        1.91272635681876       -2.13396446348894
H            2.25584069636136        0.88608889083860       -0.95842373478262
H            1.39676179108747        1.42039427348224       -2.38433512418676
H           -2.12975878198587       -2.44292275687982        1.92633906750735
H           -3.15850201630164       -1.22478666550748        2.64170329463929
H           -3.67008996840834       -2.91835473999167        2.63673758469883
