63
 energy: -105.897258451579 gnorm: 0.000409072436 xtb: 6.5.1 (b24c23e)
Si          -0.18710563519253       -1.41578406941655       -0.17421936166623
O            1.36172431860896       -1.01313977616749        0.08836507692800
C            2.44756662362581       -1.05114702723421        0.97821516120240
C            2.37134461801144        0.12898988246089        1.91709597969309
H            3.32839079274576       -0.93138850174553        0.32683643781522
C            1.20696445400252        0.39265953768730        2.62659301236971
C            3.45507555634179        0.98734624435825        2.04839330238877
C            1.12432478433039        1.50825570281273        3.44088292367295
H            0.36289051853063       -0.27401258395375        2.53813551258751
C            3.37566184876338        2.09497083448838        2.87339722116491
H            4.36332069225523        0.78657537167562        1.49761054166763
C            2.20679376682208        2.36228806329526        3.56550886948122
H            0.21206629284045        1.70755755498194        3.98390784554035
H            4.22649648614008        2.75356083103743        2.97188330727842
H            2.14154974711064        3.23194632830044        4.20300149299568
C            2.59973789712738       -2.37790719777152        1.74089515239312
C            2.64020582657400       -3.48064153983912        0.80473394795406
H            3.52778461207466       -2.33397760665206        2.31728762755365
H            1.75942602088374       -2.51721661077466        2.42253868411327
C            2.64596528030874       -4.34097553523597       -0.02628365652896
H            2.63674842089438       -5.12176013335623       -0.72612102759663
Cl          -0.48122238336632       -2.86806771286856       -1.58655084559849
Cl          -0.55956583507816       -2.68955543704547        1.51762537789774
O           -1.49795537512966       -0.55074826680932        0.49120619010467
O           -0.17331183071924       -0.19004629658011       -1.56108526177191
C           -1.54593386983681        1.71542739727726       -0.16365237425123
C           -0.14806703448713        1.82295718099512       -0.44308876124966
C            1.80566693703970        1.06668942135488       -1.62364199732132
C           -3.58492436022722        0.42511017215853        0.03420777801582
C           -4.32997307841834        1.63020180548791        0.13616204761588
C           -2.29685466840326        2.90565952390147       -0.05689546300404
C           -3.64195091987334        2.87521328050022        0.11965766668892
C            0.59545881223158        2.89510261671418        0.10146641670424
C            1.92430468691875        3.00698385212014       -0.13625087752978
C            2.56879755016769        2.09980868754709       -1.01947403197360
H           -1.78122713009976        3.84514237918903       -0.16905172777296
H           -4.21318290323476        3.78597349393489        0.20505380864208
H            0.10318749459051        3.56371648073276        0.78772829545262
H            2.51196252855713        3.77360252691851        0.34275073972452
C            3.93727265337020        2.21116966593636       -1.28495653065397
C            2.41920108735692        0.22328374718023       -2.57832902511538
N           -2.20358700033926        0.52230452236261       -0.00991209829440
N            0.48842472668544        0.93889693680618       -1.25570803055812
C           -4.27695111131763       -0.80331572624753       -0.01390968993038
C           -5.72293552751040        1.59514560076496        0.24425282806571
C           -6.38580930366900        0.39137991007764        0.25163305255348
C           -5.65950072177274       -0.78170295897903        0.11081177612909
C           -3.62693193902271       -2.12828575234790       -0.24011257882547
H           -6.26026331939571        2.52786239550229        0.32225389495350
H           -7.45986509509028        0.35515047660357        0.34759151685273
H           -6.18744586202030       -1.72307246321980        0.08446029426660
C            4.54594069118356        1.33387217431676       -2.14851924287184
C            3.77851863708480        0.37325144219920       -2.79692020126600
C            1.69083582996031       -0.79317116622662       -3.39678030057408
H            4.49623511833227        2.99679446851150       -0.80002259611102
H            5.60459471061988        1.40188689966033       -2.34671937976851
H            4.25599122589812       -0.28067495789264       -3.51155402875553
H           -4.38445256656223       -2.89166266789183       -0.39694525536471
H           -2.98223588541794       -2.10240622346721       -1.11526550614209
H           -3.02011688034757       -2.42346362201182        0.61294924000027
H            0.72704021502515       -0.42077100058290       -3.73204948998603
H            2.28953224276092       -1.06448527280872       -4.26349099686466
H            1.50364353075882       -1.69337930272659       -2.81523568311917
