63
 energy: -105.816506319738 gnorm: 0.002731497359 xtb: 6.5.1 (b24c23e)
Si           0.13936034326625       -0.91199380789936       -0.43780010831683
O            3.05638412137110       -1.71903323264794       -2.16995250354685
C            3.33881419541383       -2.44751314526822       -1.24604384057274
C            4.04827839036316       -2.03264963055974       -0.03687197452686
H            3.05481394597766       -3.51559215168491       -1.26110698709655
C            4.56548374950622       -0.73948143498494        0.06510584713813
C            4.17064302564929       -2.91230526147948        1.03791301255817
C            5.19231433297678       -0.33396017220248        1.22589054073603
H            4.45604812804664       -0.06694549916533       -0.77286721546054
C            4.79662709694491       -2.49951993323029        2.19860991028451
H            3.74819273754541       -3.90340436330352        0.96219642887685
C            5.30609432450688       -1.21301618592551        2.29317980745283
H            5.58240994982829        0.67023116785401        1.30786082506495
H            4.88162945104632       -3.17654492534795        3.03660969824539
H            5.78819963276637       -0.89194134629627        3.20590104425291
C           -2.35070845837785       -1.01461171520006       -3.43729731935931
C           -1.22171323061099       -1.29859676150404       -2.86543403426790
H           -3.21852769439463       -1.64461830312592       -3.33128283777076
H           -2.45729483053500       -0.15085548455917       -4.07167763079133
C           -0.13439805805847       -1.55900940079156       -2.21379273518431
H            0.63941589680233       -2.16260903107323       -2.65929811822239
Cl           1.58461526348682       -0.13238737369079        0.91318085888619
Cl           0.59915017673196       -2.89981910743298        0.29472356514176
O           -0.08487942483072        0.70149036912132       -1.17202829883224
O           -1.31482309803317       -0.83884106153503        0.45219526053162
C           -1.09882645421130        2.01555856851686        0.40658943249902
C           -2.31931207984349        1.27278238702854        0.23090534138884
C           -3.57861438313118       -0.74358032691471       -0.21830546846131
C            1.12577281942268        2.54131890225837       -0.34893528961944
C            1.22516978513261        3.53652177717921        0.65958009712914
C           -1.03942604181212        3.06565562904071        1.34303507637325
C            0.10786750035906        3.77633824985262        1.50383204338203
C           -3.50106003801492        2.03249176757274        0.15622406264245
C           -4.67785679779635        1.45709203348301       -0.19993210319061
C           -4.73599692387189        0.05636728402212       -0.43801247123269
H           -1.88996226509902        3.23013116350946        1.98474828819419
H            0.19051757102280        4.52730834864970        2.27348171153368
H           -3.42660936223697        3.09903039662825        0.29615189557040
H           -5.57244046858011        2.04545401996459       -0.32537126543778
C           -5.93806866423027       -0.52204394799839       -0.85317060563598
C           -3.70521921160849       -2.14695405822633       -0.32436804284000
N           -0.02644350063734        1.79930418885792       -0.39266809567341
N           -2.40357882670566       -0.08865126125453        0.10557840957380
C            2.18488701797537        2.36945164904188       -1.26868140302900
C            2.40912834154805        4.26659040823488        0.80617627957620
C            3.46772986385378        4.03789524991994       -0.03829419563115
C            3.33429368567160        3.11665895978460       -1.07034977378152
C            2.13543277813948        1.46980355658347       -2.46241622096611
H            2.47033933692346        5.00687928813256        1.58878464911208
H            4.38981307239362        4.58666294461084        0.07679190715570
H            4.15670186705842        2.98143164556432       -1.75733376645780
C           -6.02856658179966       -1.88184054748776       -1.03026467460052
C           -4.92393130807972       -2.66733618626105       -0.74371007824160
C           -2.63590903223264       -3.14286888290416       -0.00930773645709
H           -6.78871128699442        0.12014001206583       -1.02204961087489
H           -6.94913903011439       -2.33666175688583       -1.36149748892722
H           -5.00792023480284       -3.73906341153561       -0.84422078395927
H            2.90250521687711        1.76792736518043       -3.17455243179783
H            2.32126028548630        0.43191968771686       -2.18482257606939
H            1.16579364518906        1.50204825733510       -2.95234085831455
H           -1.87163690411629       -3.15082389495076       -0.78283073523821
H           -2.14404579925621       -2.92350125817303        0.93252120750628
H           -3.06641655925922       -4.13896141612029        0.04906507956600
