63
 energy: -105.895108765787 gnorm: 0.000877377561 xtb: 6.5.1 (b24c23e)
Si          -0.52998858952602        0.86433738391703        1.16436325932935
O            0.15168569702438        2.10509017570828        0.36544384738836
C            0.36007937514824        2.34079818647986       -1.01466418086323
C            1.61556978001750        1.63423334110280       -1.46649716477564
H           -0.48617830386604        1.93883255998961       -1.57544437315216
C            2.87414745470049        2.07493856837918       -1.07682249959496
C            1.51833122925924        0.49292392169603       -2.25232367672123
C            4.01068460113252        1.39940195682130       -1.48475984705702
H            2.96829346884589        2.94883348398894       -0.45071794827371
C            2.65433698092060       -0.18554532710982       -2.65654411884757
H            0.54296305514233        0.13434988925434       -2.54781609865273
C            3.90493000879622        0.27203918312056       -2.28050343211703
H            4.98380558714080        1.75625171659364       -1.18221934578165
H            2.56229087715536       -1.07070588101437       -3.26941422288766
H            4.79300024959808       -0.25113416673613       -2.60171988314187
C            0.41999417092474        3.86221611504303       -1.22400209418209
C           -0.89726522911062        4.43929233475922       -1.05942655686662
H            0.79809225910769        4.07418411786727       -2.22774300335818
H            1.09173014288974        4.30027687370236       -0.48335353141987
C           -2.00431743549051        4.86890952351639       -0.91323844666588
H           -2.96412493062745        5.26977879877128       -0.77978242621967
Cl           0.01775633979788        1.73218429521088        3.00887907252517
Cl          -2.51055600404542        0.64298792095943        1.86874820921737
O           -1.04708499238175        0.07820810482838       -0.41279880154218
O            0.53118690259247       -0.44126921610623        1.50337677494931
C           -1.09229256937068       -2.18440060506695       -0.04846367410997
C            0.34431323649268       -2.21689518743830       -0.01970177272155
C            2.51603661424344       -1.31949370823756        0.55509306437901
C           -3.14065354727185       -1.01595919486384       -0.52430383467338
C           -3.87145080323997       -2.19612244292283       -0.21950969562419
C           -1.80949516749192       -3.37951501759083        0.15644686778557
C           -3.16690604984046       -3.37746620430982        0.13505875669192
C            0.95881681794368       -3.28678933191954       -0.69698707874051
C            2.30840839593599       -3.35078345216037       -0.81834658479249
C            3.12151067471188       -2.35701583718059       -0.20914398567695
H           -1.25776367988268       -4.26667023738726        0.42193632294269
H           -3.72877782763027       -4.26507184080917        0.37842482416843
H            0.32387903167943       -4.01132512016325       -1.18089373926962
H            2.78245825428968       -4.14068543996197       -1.37854622025088
C            4.50991972477192       -2.43377974628739       -0.34314334411679
C            3.35899519131222       -0.40057988709981        1.21946645586345
N           -1.77682163520858       -1.05248542519693       -0.35288804044475
N            1.13228146328689       -1.29633878683180        0.61452976415091
C           -3.83676161187699        0.11310007922016       -1.01159036335344
C           -5.26859008620810       -2.19587744195334       -0.28574081085859
C           -5.94198619585848       -1.06564046489345       -0.67720810270026
C           -5.21893059393352        0.05780190233291       -1.05863003937644
C           -3.17379413424231        1.35213834285034       -1.52600609425462
H           -5.79897225203774       -3.09958061210885       -0.02773050516140
H           -7.02006093483557       -1.05250222009965       -0.71629503246702
H           -5.75335704863457        0.92598966065492       -1.41424194185006
C            5.31902495221336       -1.51923101305151        0.28552190992885
C            4.73277258930083       -0.53162284837459        1.05948372741620
C            2.89893205394935        0.71209142534346        2.10094897114692
H            4.92723759218896       -3.23116863790552       -0.93883410546408
H            6.39251657742443       -1.57219148438673        0.19095087714847
H            5.37008309377152        0.17406203470746        1.57074618634493
H           -3.90376422899617        1.97801900457659       -2.03383850187899
H           -2.73782463450261        1.93131476902470       -0.71498861542168
H           -2.38488905922817        1.10291696094215       -2.23242380428358
H            2.30672232106476        1.43427224653317        1.54705199264493
H            2.27995441976332        0.34873704211593        2.91647170079299
H            3.75611236080325        1.22955985916114        2.52375495479484
