63
 energy: -105.894325330851 gnorm: 0.000315465903 xtb: 6.5.1 (b24c23e)
Si           0.16987384783096       -0.31125661248192        1.15002149934915
O            0.23755595545796       -1.77179091601095        0.44968867102430
C            0.68543573995792       -2.23641677254904       -0.79852804429868
C            2.07408405782560       -2.81939664476454       -0.68902194547735
H            0.68460066438267       -1.40921200799265       -1.51568884568302
C            2.58339110928834       -3.21520831773092        0.53908112951177
C            2.84835283143402       -2.97807155421201       -1.83260645886787
C            3.85663515374625       -3.75171689653681        0.62411383823052
H            1.98141653150505       -3.08841001229211        1.42565715680278
C            4.11753405285411       -3.51924694309740       -1.74612405657053
H            2.45554994997887       -2.66837587251423       -2.79125599074369
C            4.62542519677073       -3.90518211919628       -0.51627013055845
H            4.24699314702461       -4.05028265242799        1.58549200451273
H            4.71387386103196       -3.63648669535170       -2.63938423451790
H            5.61905291519300       -4.32314234779915       -0.44900714775990
C           -0.30514330761273       -3.31506831431397       -1.28715429360405
C           -1.53696577920734       -2.71315288147367       -1.74825635274872
H            0.15305550580953       -3.87929930919437       -2.10341856251044
H           -0.50907926608548       -3.99589124889543       -0.45719664028310
C           -2.52706891021134       -2.16253768688388       -2.13442910044332
H           -3.41231244643608       -1.71347920670691       -2.47327102020522
Cl           1.84019963905432        0.71702243151716        1.93267658016651
Cl          -0.20556600810764       -1.17325297824714        3.04807021881586
O            0.42205690616329        0.56833949642995       -0.44126072080251
O           -1.42003607913538        0.31314084564639        1.25735901837593
C           -0.59961834071492        2.61336457706077       -0.19436730558213
C           -1.89112062520113        1.99694215316903       -0.30323343779051
C           -3.42733415061207        0.15493289101523        0.01048007292590
C            1.78756974449294        2.50065374228444       -0.46275848358209
C            1.87979004879265        3.88216504106957       -0.14308981046850
C           -0.51616102567544        4.00132215513999        0.03676178824777
C            0.69188456830462        4.61306655259064        0.12641220895650
C           -2.86235413698805        2.69088621107097       -1.05102911237762
C           -4.06038794471605        2.12002405884681       -1.33095403410506
C           -4.35960354470519        0.82110351285552       -0.83549154225958
H           -1.42864483565112        4.54112295323397        0.23129909542089
H            0.77027609913300        5.65568828841205        0.39013179935559
H           -2.59705711967200        3.65177229389367       -1.46104788182339
H           -4.79047416517546        2.62475114100355       -1.94320777203528
C           -5.57880489697531        0.22445796644367       -1.16900840190900
C           -3.79125809690324       -1.09847768422897        0.55446067043719
N            0.54683524268335        1.91075585203484       -0.39177027027236
N           -2.22360375507856        0.79347051762266        0.25349250330282
C            2.95402323431248        1.81469305616356       -0.86713274677750
C            3.12611268584502        4.51609768585288       -0.11251470598540
C            4.26586630459142        3.81737322703734       -0.42451036121091
C            4.16102437293998        2.49020865795474       -0.82153169815902
C            2.96175926482818        0.40942574543094       -1.37794316748900
H            3.16862600641805        5.56076215215895        0.15485004929108
H            5.23225670400964        4.29560869756794       -0.38918994091382
H            5.05442115739292        1.95920907770724       -1.11422922990761
C           -5.90833765279702       -1.00912861882424       -0.66129268558633
C           -5.02007279990262       -1.63852936558366        0.19652267364896
C           -2.95886778387572       -1.90587628583078        1.49227649005366
H           -6.25210345158773        0.75643116658761       -1.82389038833399
H           -6.84589436064706       -1.47897552756767       -0.91524004878532
H           -5.28893744028044       -2.59973557454260        0.60739816760756
H            3.91455477519222        0.19247890018300       -1.85526006255309
H            2.82556436363647       -0.29560735574785       -0.56126708269825
H            2.16480755450280        0.25156283331116       -2.10027893913285
H           -2.02014341719480       -2.19522980400924        1.02989077706493
H           -2.71812597522929       -1.34928783242504        2.39376314402560
H           -3.49143187600586       -2.80961284186351        1.77629109768579
