63
 energy: -105.897177107926 gnorm: 0.000543194055 xtb: 6.5.1 (b24c23e)
Si          -0.21673892263850        0.42460982058455        0.50233242544108
O           -0.66810135377598        1.42911655988471       -0.69162381243504
C           -1.10281589530951        2.76860238178028       -0.61804308192033
C           -2.43337413119845        2.89027026163714        0.08058252587133
H           -0.35466802467877        3.35493366783536       -0.07163219869634
C           -3.42561429912411        1.94256679361121       -0.12652843028496
C           -2.68188067304079        3.95842722269536        0.93111807874797
C           -4.64432409662989        2.05217201663034        0.51818533980742
H           -3.23559299310464        1.10227743921674       -0.77734417803770
C           -3.90378712671815        4.07281746246081        1.56859238710172
H           -1.90781400359899        4.69072563623788        1.10613144797585
C           -4.88673982990054        3.11896479575853        1.36559889880541
H           -5.40272548300708        1.29918196728538        0.36141164521310
H           -4.08507386792033        4.90308469158159        2.23509379414280
H           -5.83648073942503        3.20272638656865        1.87332795172084
C           -1.21665749194311        3.29716300676519       -2.06062444392588
C            0.06745912899221        3.28568564884916       -2.72610971111606
H           -1.60932303557261        4.31671220710842       -2.03026330841015
H           -1.91635930158375        2.66466689392257       -2.61263165657768
C            1.14395961117383        3.25834167323952       -3.24823210387820
H            2.08133783300799        3.24260862439513       -3.71840191857815
Cl          -1.70858122062237       -0.74754995104480        1.37521343445918
Cl          -0.21619869298303        1.85200081422700        2.12366802414711
O            0.07186641083199       -0.76817317930200       -0.83890436029026
O            1.37444102262996        0.15816431928976        1.02767788145459
C            0.93591092735535       -2.62262928333836        0.22686938589800
C            2.19610939319961       -1.97514724134596        0.40591223410857
C            3.59324897120836       -0.00128278007803        0.30759351371536
C           -1.20497037882282       -2.71909581143779       -0.87156745439741
C           -1.47132046389364       -3.96997938138245       -0.25973475029404
C            0.69249471765916       -3.89590659496095        0.79533835831291
C           -0.49187435588768       -4.52715946381251        0.60565952215331
C            3.35701807029461       -2.77652206518035        0.49066127360778
C            4.59646616418073       -2.22422801960237        0.51559562811657
C            4.75260797141309       -0.81658380598002        0.37608602579016
H            1.43287002289912       -4.31074531767038        1.45892266737683
H           -0.70944334900925       -5.45828692001945        1.10474834850917
H            3.23987265301786       -3.84751095724977        0.48434082865062
H            5.47850015741822       -2.84050636668718        0.58866026102969
C            6.02411503818028       -0.24174915941206        0.29823620719292
C            3.73830529827755        1.38597519548390        0.10155661666297
N           -0.04587200884840       -2.06844128153928       -0.53165592143293
N            2.36012843047480       -0.61268314425549        0.44873118788204
C           -2.11801508142196       -2.19608966391785       -1.81614513919021
C           -2.68196501271755       -4.62553655532277       -0.50553519132591
C           -3.60492317681359       -4.06958171503530       -1.35631594554291
C           -3.30264342081924       -2.88261877583693       -2.01542726021786
C           -1.84227512561127       -0.99354624026058       -2.66315000794914
H           -2.87151110188201       -5.56861071127398       -0.01650801383173
H           -4.54888401392699       -4.55959176736206       -1.53833545646139
H           -4.01476543885995       -2.48472099818012       -2.72346596755576
C            6.15947675434694        1.11805379846979        0.14895476048520
C            5.02307942476949        1.90675304618267        0.03967951413082
C            2.59242886197667        2.32313784146987       -0.10020373666554
H            6.88913175182717       -0.88436708473393        0.35823706128784
H            7.13799524355833        1.57024304973050        0.10012725703215
H            5.13632725452677        2.97015199082245       -0.10985359116655
H           -2.62086787132341       -0.88551426492692       -3.41534133464059
H           -1.79095022765039       -0.08607043461149       -2.06877272253167
H           -0.88004581599531       -1.09143910039429       -3.16266906825464
H            1.89607925273309        1.93756234774726       -0.84178489856338
H            2.04484764632444        2.47229954967168        0.82866565152605
H            2.95703201397146        3.28885192501032       -0.44181147418179
