63
 energy: -105.896524159503 gnorm: 0.000544896136 xtb: 6.5.1 (b24c23e)
Si          -0.52614279771121        0.39484380483720        1.00918667885458
O            0.12457582369274        1.75596111008290        0.41866009784095
C            1.21167416616560        2.53245878524736        0.84653158046039
C            2.49565607948876        2.00141108043579        0.25704300504117
H            1.26756054632966        2.51061528128616        1.94286736200565
C            2.47356859469188        1.31170541983544       -0.94808009592251
C            3.70785384876055        2.20016816657503        0.90478192675533
C            3.64502951344918        0.82134273204954       -1.49578232708490
H            1.52657526240070        1.15398782422821       -1.44227807534830
C            4.87979245239183        1.71436748208927        0.35262887294383
H            3.72802584268268        2.72683965846491        1.84800376434899
C            4.85096143533805        1.02405429966912       -0.84752879649426
H            3.61705750286148        0.27742595590687       -2.42909578830193
H            5.81831185100574        1.87067140095968        0.86398644545050
H            5.76571945627446        0.64145560980889       -1.27550777033288
C            0.96459738786327        3.97819566637348        0.37355212874662
C           -0.24495353986928        4.50249194562634        0.97037731407500
H            1.81988372799569        4.59855650538036        0.65206345316336
H            0.86259281350690        3.97589911618522       -0.71476050886968
C           -1.26123992355299        4.88458898539486        1.47275545048030
H           -2.14144877881656        5.23729236366619        1.92088695380395
Cl           0.26650984546022        0.52598898300781        3.00675186683149
Cl          -2.47854513131634        0.35002635984331        1.77728535273738
O           -1.14222569185817        0.20315242225563       -0.67232673473853
O            0.26094385778036       -1.12458877006240        0.93088757334024
C           -1.76688633660503       -1.98142584455209       -0.92507833339723
C           -0.37820122895233       -2.35225095265395       -0.98506007441445
C            1.94741850562580       -2.15573553337197       -0.35588515868547
C           -3.42971167368221       -0.24395871560524       -0.99324845418430
C           -4.44843148476379       -1.23376903565434       -1.01940244932476
C           -2.76927293037281       -2.96381804904574       -1.04030545730289
C           -4.07999041908007       -2.60636638923505       -1.02839643366741
C           -0.02321864265117       -3.24883085004137       -2.01106015670768
C            1.28013678249599       -3.47328428580794       -2.31854361497967
C            2.30449335613760       -2.89835247165446       -1.51678104014747
H           -2.47181485908639       -4.00008847608888       -1.05076867383306
H           -4.85880816891843       -3.35240973458956       -1.03262995888001
H           -0.81431734738620       -3.66286634434830       -2.61497615302504
H            1.55844709355285       -4.08363572894461       -3.16231700654385
C            3.64597690117664       -3.11639561591608       -1.83760516821282
C            2.96896259563503       -1.79851084552992        0.55029508964967
N           -2.13340718240378       -0.67765336689377       -0.88698339511586
N            0.60713727688883       -1.85472390477160       -0.17803721256799
C           -3.77881354183825        1.12092649839901       -1.11026563936638
C           -5.79343175738594       -0.85095389989628       -1.05166126385681
C           -6.13000317142577        0.47972519729221       -1.08681625148829
C           -5.12563480254264        1.43954299278036       -1.13937982980364
C           -2.79057411157039        2.23614322515419       -1.24577227279913
H           -6.55230166301589       -1.61822900477642       -1.05264162173803
H           -7.16532780152899        0.78341774379232       -1.09836110545545
H           -5.40338641728019        2.48045315343597       -1.21286570297841
C            4.64053039094239       -2.65633382170956       -1.00672147639853
C            4.28685427578559       -2.04184379413558        0.18281142324204
C            2.75316647651102       -1.22140089934952        1.91083660115035
H            3.88009671493712       -3.66437806249189       -2.73743469510493
H            5.67974179794765       -2.80882533706958       -1.25308055496856
H            5.06501072560556       -1.74388632576704        0.86890486584382
H           -3.30139833092600        3.14273020602155       -1.56199029666614
H           -2.29095492468728        2.43727453851846       -0.30072791298317
H           -2.01867084405033        1.99249403947084       -1.97071112928296
H            2.48431976576451       -0.16984343249290        1.85733312992673
H            1.95646291973408       -1.73219068151203        2.44315934977705
H            3.66864291641963       -1.30211038009394        2.49182030447510
