63
 energy: -105.902713720677 gnorm: 0.000551227512 xtb: 6.5.1 (b24c23e)
Si          -0.32804178243965       -1.40246498884987       -0.00384771424843
O            1.20843706158666       -0.97335993070696        0.31702252696391
C            2.15072013304369       -1.27443123830943        1.32152927529804
C            2.51909607884101        0.05279496494660        1.94763635995513
H            1.67534176178468       -1.91660387836903        2.07549257676063
C            3.76765990733524        0.64519884273838        1.83038938291846
C            1.50579867599615        0.74360312575717        2.60595603199136
C            3.99780674063078        1.90212527047992        2.36580381481212
H            4.57394650982255        0.13694131651355        1.32529783378949
C            1.73318506140327        2.00093948374899        3.13091764708544
H            0.53368366258214        0.28139756657552        2.69970148354034
C            2.98344779407124        2.58543651280872        3.01093329628866
H            4.97728876663384        2.34878973289037        2.27313557057672
H            0.93635086037544        2.52447431646568        3.63886263323960
H            3.16591201034887        3.56717498525586        3.42327354584254
C            3.31650350842174       -2.03693492036327        0.67868097415783
C            2.82449635520983       -3.26675699277083        0.09133968558949
H            4.06531098906676       -2.26231670324742        1.44171763042587
H            3.76303039828530       -1.42314868569910       -0.10906983412889
C            2.35773909896873       -4.25073777640193       -0.40320659976044
H            1.95281275448213       -5.11785357351140       -0.83183975389690
Cl          -0.72788609419080       -2.91799316380357       -1.32316310748679
Cl          -0.64438320798438       -2.57151929183226        1.77481786441703
O           -1.61457982802689       -0.46429373024753        0.61032534903412
O           -0.23720014375609       -0.29711343148594       -1.45523802359386
C           -1.65739610536606        1.71371720281753       -0.29323360907060
C           -0.24682850606328        1.80334961425427       -0.52376788996803
C            1.76037690896264        0.94054857544061       -1.53163201037668
C           -3.70296071079237        0.46081431717644        0.04636069145122
C           -4.44696722104722        1.66701855384558       -0.07007581891147
C           -2.40825706586935        2.90371746845611       -0.39483439824083
C           -3.75897543639308        2.89555311759498       -0.26948260653913
C            0.46476256128628        2.93487832315993       -0.06708031466384
C            1.80280310549606        3.03283178684576       -0.25932267025223
C            2.48996231102645        2.04056541555383       -1.00840683832879
H           -1.88467164469661        3.81561306634039       -0.63061412242082
H           -4.33262268587588        3.80474773996378       -0.35550721424635
H           -0.06212477742810        3.66904817419292        0.51963947459306
H            2.36652335370327        3.85169749638756        0.15795386696153
C            3.86816729980405        2.13835809616754       -1.22294971302833
C            2.42398879820625        0.00040118130020       -2.35301960240162
N           -2.32026436431849        0.55241497110304        0.00861602761205
N            0.42638809911958        0.85012673750138       -1.21766598144390
C           -4.40333797626843       -0.75562968369438        0.20128961646160
C           -5.84216572014167        1.65464681169481        0.00889596960482
C           -6.51332792967066        0.47180534758819        0.20390743580843
C           -5.78887706985546       -0.70744508731349        0.28727158784689
C           -3.76947201223723       -2.10743882058065        0.23760069487005
H           -6.37405160734093        2.58939215495634       -0.08261843228004
H           -7.58957434080692        0.45433505059400        0.27893167409129
H           -6.32155008376447       -1.63771582121017        0.41535001370890
C            4.52124586365926        1.18093469690706       -1.95958552012960
C            3.79108530592407        0.14391443494688       -2.52803879844561
C            1.75294522817833       -1.12924692166627       -3.06637265700803
H            4.39954945553230        2.97677786906504       -0.79997445698234
H            5.58706500764043        1.24043075819702       -2.11873097663863
H            4.30518470585176       -0.58246394702360       -3.14050423214791
H           -4.53747790011160       -2.87623836613934        0.26512204018459
H           -3.15474133248344       -2.27422461441467       -0.64395924107840
H           -3.13533151125851       -2.22965265236031        1.11247871142459
H            0.78746274275741       -0.83760829900977       -3.46836094255074
H            2.38678668598438       -1.47861496501448       -3.87850576586621
H            1.58561149602998       -1.96240959645757       -2.38578644128134
