63
 energy: -105.894840561181 gnorm: 0.000608113581 xtb: 6.5.1 (b24c23e)
Si           0.03436344445692       -0.45438395323054       -0.00248107426206
O            0.78207688344791       -1.88464624290734        0.10742655764511
C            1.91487548826020       -2.34038877572577        0.80854893507786
C            3.15793965999141       -2.08932215370901       -0.00670437558085
H            1.98851898231434       -1.81997801591782        1.76973893706673
C            3.11576105683660       -2.22021164039543       -1.38897467310736
C            4.34988131244692       -1.73364981747919        0.60987803498561
C            4.25081726005346       -1.99242084133104       -2.14567666267684
H            2.18258617674685       -2.48132050693722       -1.86434392832049
C            5.48587147273732       -1.51179670131093       -0.14871969291247
H            4.38220707600325       -1.62154987409554        1.68396913650775
C            5.43837017528881       -1.64017330273436       -1.52676617048679
H            4.20798299578622       -2.09123288818778       -3.22031721999694
H            6.40955437760317       -1.23333754323985        0.33730755694802
H            6.32548821114436       -1.46357600750844       -2.11750315260729
C            1.73811976236232       -3.85011400250965        1.05489384973966
C            0.68601002596674       -4.09833349212196        2.01564855350179
H            2.68114175947117       -4.26043113649652        1.42589373509345
H            1.48960898516326       -4.32882310887025        0.10454337687387
C           -0.18766254575679       -4.25707437076388        2.81741085028423
H           -0.94989811164416       -4.41812332848095        3.51922825186278
Cl           1.08373360513486        0.43688463618541        1.72338955039855
Cl          -0.94432971900805       -1.26559592119730       -1.75266023948714
O            0.26219179643023        0.95957132720357       -0.94417114669509
O           -1.40764080081238       -0.05974194644582        0.81327775868753
C           -1.19215648711306        2.54512056464513       -0.09842401523161
C           -2.33741993293138        1.70372954136383       -0.35435522283022
C           -3.51982233759721       -0.39921697276373       -0.18585401734044
C            1.18715103169608        2.98101684448794       -0.13475593023757
C            0.94921818840389        4.24803008732244        0.46604044953677
C           -1.42600117310796        3.84081965040305        0.39779387153489
C           -0.38833075227785        4.66118755476080        0.71064187241274
C           -3.43149035734040        2.27011177417192       -1.03407022504824
C           -4.50705363391671        1.50927141334801       -1.36849427453059
C           -4.57214480107522        0.14677890045044       -0.97100162980001
H           -2.44427612998303        4.13032543174776        0.60212198152030
H           -0.55948193906507        5.62812278374572        1.15625422022798
H           -3.35352864187230        3.29527798244369       -1.35863600561274
H           -5.31651823112665        1.91894413451510       -1.95139784532650
C           -5.66525714792858       -0.64579131366502       -1.33340917942689
C           -3.63422664085648       -1.72102752017479        0.29869420329973
N            0.09312634929457        2.18485456325974       -0.37467799325679
N           -2.44914595514903        0.41874306308275        0.08112182550101
C            2.50918723447455        2.61911953660133       -0.47601227806360
C            2.01959718756327        5.08521993870976        0.79412709170919
C            3.30827946093175        4.69829697096062        0.51807788862494
C            3.53087275917980        3.48799280022167       -0.12421961233148
C            2.89834446144678        1.36533234995511       -1.19668974182450
H            1.81043823427640        6.03446830543836        1.26293043443160
H            4.14115200828213        5.33262416287390        0.77894104715910
H            4.54442535478584        3.20507936170824       -0.36606975208273
C           -5.73802580741080       -1.95197857791777       -0.91557659674833
C           -4.73863573840085       -2.46030265537966       -0.09702045510386
C           -2.66139382243420       -2.39026620848252        1.21948872423228
H           -6.44258474031017       -0.21064884735105       -1.94238628946249
H           -6.57067434199850       -2.57561919280175       -1.20172897456752
H           -4.82130541064106       -3.47846041872684        0.25271031862996
H            3.93458354908449        1.43183573943068       -1.51993236663656
H            2.81168145180281        0.50589247296406       -0.53528497300107
H            2.27037480153267        1.18323237375272       -2.06418174822033
H           -1.74743874264880       -2.65390277965655        0.69168006064403
H           -2.38608038470171       -1.75022675579825        2.05286717500928
H           -3.09932025331229       -3.30655745143888        1.60771121369845
