63
 energy: -105.902534745722 gnorm: 0.000352344727 xtb: 6.5.1 (b24c23e)
Si           0.18924262846434       -0.99008805438813       -0.00202850588587
O            1.26596517663676        0.01191041335916        0.70762387330428
C            2.25442047171598       -0.26848798842856        1.67618670116553
C            3.34340686582177       -1.12081279517555        1.07707118189368
H            1.78810378860443       -0.80383419046222        2.51134688768410
C            3.97158807824420       -0.71502204174131       -0.09288043438855
C            3.69603416568102       -2.33147719748811        1.65498386766334
C            4.93741302414688       -1.51114587544837       -0.67994314531389
H            3.68927704966803        0.22177631600921       -0.55010076714791
C            4.66758527473557       -3.12439370437132        1.06989102025769
H            3.19442963843323       -2.66030458605266        2.55239035751335
C            5.28830341314069       -2.71740138700410       -0.09819816379906
H            5.41347688328865       -1.19187975550777       -1.59552715074043
H            4.93168293440597       -4.06843367167790        1.52259207440649
H            6.03924043915128       -3.34225948769700       -0.55897564125532
C            2.81315174433040        1.07362485262140        2.17861203174300
C            1.79229574498429        1.83026159305956        2.86852698304192
H            3.64504619144784        0.87119010706341        2.85803094355325
H            3.18242361801903        1.65157292880674        1.32740670139398
C            0.91254719984862        2.42275671401086        3.42242723861789
H            0.16020553381735        2.94828949514014        3.92993435273841
Cl           0.82469480352844       -2.19229536141222       -1.54777153095781
Cl           0.24676245832555       -2.55977953880225        1.47163995486489
O           -1.43825471017717       -0.88912434870861        0.47450839021652
O           -0.13183778733269        0.29309418955639       -1.25885972646146
C           -2.38717226521127        1.22479530984618       -0.00723972587815
C           -1.16230403015490        1.96099087142003       -0.04219190367656
C            1.04479173104495        2.28907537126726       -0.93938622694826
C           -3.65596545400055       -0.82089872307478       -0.26811975090704
C           -4.86452196528866       -0.08052917960043       -0.18591349190868
C           -3.59676118144308        1.95083254070615        0.06343316219009
C           -4.80036182178078        1.32623988708232        0.01476427362196
C           -1.04400050167397        3.17475577905183        0.67501632885297
C            0.11792343042338        3.87212740575656        0.67388044123487
C            1.19996469494987        3.45503849594409       -0.14677442562355
H           -3.54378219010356        3.02601391102200        0.11055272626749
H           -5.72052702621174        1.88501416441632        0.07951804125253
H           -1.86447191482284        3.47974028160418        1.30291417562319
H            0.24250929073008        4.74937978583545        1.28824415479587
C            2.40097246074776        4.17048772206068       -0.18016961250318
C            2.05360752990092        1.94132409264776       -1.86704756788575
N           -2.46474503198776       -0.14388564696278       -0.06143452117312
N           -0.10094036665697        1.55132326989679       -0.78330909812847
C           -3.71663418296957       -2.20160627975853       -0.54953621170175
C           -6.09853527206058       -0.72447673366794       -0.31145711848438
C           -6.15121197452909       -2.08164120853010       -0.52147691420302
C           -4.96792773759929       -2.79361686367810       -0.65286454953423
C           -2.52110302778862       -3.06124760091169       -0.79767219433377
H           -7.00028589989778       -0.13597046095155       -0.23883799303515
H           -7.09996176081366       -2.58871818913379       -0.60430737379059
H           -5.01491874713334       -3.85287382307841       -0.85622090846066
C            3.42232576114005        3.76436876136834       -1.00491714227070
C            3.22475774196164        2.68171375364822       -1.85488577674283
C            1.90854909638407        0.86965110941716       -2.90013986271376
H            2.50505288736353        5.04039119806720        0.44964962032887
H            4.35990737114914        4.29837056882226       -1.02239861174867
H            4.00938317026570        2.41120902182108       -2.54653794341717
H           -2.83351373815741       -4.03050371111935       -1.17728625662132
H           -1.85777011764463       -2.60472977131821       -1.52838230794806
H           -1.95083349622983       -3.22175541663544        0.11470738819386
H            2.03880447701074       -0.12204936223437       -2.47159436277402
H            0.92017029500503        0.89277696763036       -3.35167516664030
H            2.65703013721856        1.00736807604452       -3.67763478742191
