63
 energy: -105.902734935424 gnorm: 0.000413041361 xtb: 6.5.1 (b24c23e)
Si           0.27304269507971       -1.16824433060962        0.88959811526937
O           -1.31904213650840       -0.91342852274318        0.67507629014559
C           -2.41868039491484       -1.69631749089491        0.26828612783705
C           -2.88568229316163       -1.10093955445455       -1.04200545953477
H           -2.08003627788233       -2.72777359377849        0.10104763449696
C           -4.08262620152235       -0.41822139099385       -1.20030129914387
C           -2.00726488908451       -1.17828372072876       -2.11903869616636
C           -4.39552427291691        0.17032603793941       -2.41500862959305
H           -4.78398855724606       -0.33893481025274       -0.38448674052725
C           -2.31545447056991       -0.58223729239192       -3.32662708382175
H           -1.07598429799619       -1.71229866828488       -1.99725207771662
C           -3.51386961366933        0.09600228713699       -3.47791873048568
H           -5.33501731947792        0.69261676356217       -2.52717244499918
H           -1.62290561113478       -0.65143484351425       -4.15297185695845
H           -3.76011655465108        0.55979588542059       -4.42205112567987
C           -3.45455705405449       -1.68613574260219        1.39957780229890
C           -2.86151261565453       -2.24957769997543        2.59573398919263
H           -4.32476078517239       -2.27501865431075        1.10031485487745
H           -3.75795150562908       -0.65618163121246        1.60841665956596
C           -2.30475364484293       -2.69289426545173        3.55711882550236
H           -1.82658953782331       -3.09098110785708        4.40122655695519
Cl           1.01728852068022       -1.49259967582188        2.77056581139490
Cl           0.29165663027363       -3.23906830219988        0.29777061300813
O            1.33752876598032       -0.98034553141657       -0.42834850889684
O            0.42270539964957        0.61757715827956        1.24353317533205
C            1.39338535315565        1.23878700887800       -1.22750495142443
C            0.06728605283587        1.58334905725508       -0.81240720524195
C           -1.59079055906446        1.78469683086357        0.92013777488274
C            3.41504843859313       -0.08689825095932       -1.06831020110449
C            4.06507653317534        0.81645002956800       -1.95250338423688
C            2.04784218413067        2.11942558617545       -2.11475484156053
C            3.33476747328544        1.91200982267600       -2.49031464217469
C           -0.81645280106799        2.19150846982153       -1.73204658047587
C           -2.08009579129973        2.51536742015901       -1.36542833468636
C           -2.50220289306282        2.33092493225526       -0.02159554252845
H            1.51502717799316        2.99551359847988       -2.44612758713434
H            3.83445658356368        2.58890584570439       -3.16484553516611
H           -0.49566880472659        2.30305525451305       -2.75439775433887
H           -2.78484224110972        2.90402924601249       -2.08283019988241
C           -3.80076025536554        2.67154022741846        0.36967713161289
C           -1.97876726297051        1.68152862632991        2.27585794987522
N            2.06913144517151        0.12059953554819       -0.81173173477525
N           -0.35792073951308        1.38782252760413        0.46236625327208
C            4.16269609751561       -1.14474345812425       -0.50667229542279
C            5.40862625865694        0.63709930307176       -2.29249121755751
C            6.11742322396307       -0.42013734998785       -1.77519434422930
C            5.49051375948645       -1.28322464146640       -0.88936124996772
C            3.64417062370582       -2.10868352642045        0.50919623297645
H            5.87036039401452        1.34150176734351       -2.96731167584359
H            7.15175305874926       -0.57314930092130       -2.04125316078075
H            6.05845466620742       -2.09773574543396       -0.46566054791376
C           -4.19543648434946        2.50065027444876        1.67399419320895
C           -3.27814195816014        2.03115433909458        2.60670642423125
C           -1.08066870255242        1.24117566240461        3.38650705820944
H           -4.47713053762294        3.06885266710820       -0.37135396992586
H           -5.19963630341800        2.74806912672231        1.98260476370551
H           -3.58391823653379        1.93720846331884        3.63836571078245
H            4.44947120560146       -2.75160934961172        0.85429321510747
H            3.23437928610306       -1.58622281238008        1.37023834359194
H            2.85871498600638       -2.73868168092755        0.09899341529220
H           -0.07424994480767        1.63255786123782        3.27367090036392
H           -1.48722731527321        1.57089554758543        4.33996073003714
H           -1.00892394877020        0.15518078177935        3.40668605686014
