63
 energy: -131.234663737677 gnorm: 0.000580211769 xtb: 6.5.1 (b24c23e)
Si          -0.32774202128576       -0.32072636300331        1.38358436686308
O           -0.09506737141373        1.25161073138028        1.67489177965762
C           -0.19866848328422        2.41830662498465        0.88403727249640
C            0.94884886515021        2.49476341276884       -0.09103577280352
H           -1.13395421500761        2.39373254414566        0.32549318635772
C            2.25762305543725        2.58252950275332        0.36837461046680
C            0.70986644163372        2.48170832025365       -1.45893127393492
C            3.30549883319722        2.69570321612742       -0.52761316310695
H            2.45034072587494        2.55933978792124        1.42936193275490
C            1.76013192457606        2.58661164648141       -2.35471237811927
H           -0.30601668228513        2.40007019780348       -1.81775574775732
C            3.05870414411918        2.70856296398805       -1.89027561416062
H            4.31813456583660        2.78342534794085       -0.16196486054519
H            1.56332093924068        2.58531045665150       -3.41731396868518
H            3.87643148976614        2.81455701563269       -2.58794646523995
C           -0.20210339743027        3.62981917163169        1.83310688059734
C           -1.49683809914282        3.80186380988663        2.45593286523818
H            0.05242943998427        4.52932673182229        1.26499331084583
H            0.55046957985209        3.46686635537364        2.60709309823645
C           -2.58097220005813        3.93619378853848        2.94313168562351
H           -3.52434463733924        4.04979191850558        3.38643827142272
Cl           0.45575630999191       -0.83115062946110        3.22843402960609
Cl          -1.85425234069685       -1.78671665927933        1.63032596957350
O           -1.20953834707035        0.13676997411852       -0.23938152482109
O            0.97248801568762       -1.04610566778172        0.50124341915469
C           -0.83424673562952       -1.58314498916426       -1.69229291181427
C            0.54983317190048       -1.19747660392764       -1.82185755586660
C            2.73443983686488       -0.64706356857875       -0.99255725832405
C           -3.05193804244421       -1.12992036849448       -0.93811695873330
C           -3.49966223630746       -2.34359235290008       -1.52565167967690
C           -1.29099505565300       -2.70831907586304       -2.40183932834720
C           -2.57879998898219       -3.12413649873649       -2.27069382800334
C            1.03200419220201       -1.13865933960751       -3.13998098547372
C            2.29258780897926       -0.70908825502054       -3.40647489563359
C            3.18265671809646       -0.45423089920025       -2.33169025333341
H           -0.57281046053017       -3.28550143343388       -2.96150337000979
H           -2.91679618501465       -4.04289660182384       -2.72156003747623
H            0.34269700860784       -1.36102527082758       -3.93832941630846
H            2.63949885162661       -0.57728813587443       -4.41779026601015
C            4.49724379695933       -0.06885199752968       -2.60587024022702
C            3.71331922875899       -0.56853370680072        0.02159467782138
N           -1.71526826246237       -0.84005042046807       -0.98556274404318
N            1.39608476384809       -0.91223846178224       -0.78605180248368
C           -4.01774305836955       -0.28927997462338       -0.34368617397898
C           -4.82945833143078       -2.75098026880556       -1.36986806874839
C           -5.32204173802118       -0.73297176838393       -0.19768294438438
C           -5.72420278773597       -1.97367746936648       -0.67490767722028
H           -5.13407737545546       -3.69064914259731       -1.80394247343122
C           -3.73986137871647        1.13059279787466        0.07773031867898
H           -6.04320443648780       -0.09277053308097        0.28490876124573
H           -6.74061367212628       -2.30003094473467       -0.52630647844915
C            5.40453949791068        0.10795038040576       -1.58770899035253
C            5.01036700022172       -0.16776035864403       -0.29137120534591
C            3.50280144869914       -0.91638106792465        1.47949886438325
H            4.78338251785976        0.07817516857350       -3.63566618460127
H            6.41462926257605        0.42482722479415       -1.79028007803608
H            5.73516363523985       -0.08670628608144        0.50233781962626
F            2.86132985639841       -2.06872556531484        1.67346106190938
F            2.90897604635526        0.07107855978491        2.15182713538883
F            4.69019146043949       -1.09124882779563        2.10497195750501
F           -3.13062362473779        1.26420423317088        1.25421445640264
F           -4.88703604589177        1.83143769158624        0.19296295551680
F           -3.03214222289316        1.80578293200342       -0.84802711186580
