63
 energy: -131.230615227453 gnorm: 0.000364290934 xtb: 6.5.1 (b24c23e)
Si          -0.18023040374176        0.21584004981581        1.32938653492712
O            1.26147902829534        0.77638561136281        0.82266465647780
C            2.11910384672797        1.89247489301085        0.76054467715519
C            1.84526961609408        2.67676052089431       -0.50139011254040
H            3.12469678736778        1.44636361480222        0.68588663840723
C            0.54929000237091        3.02888346188195       -0.85556919682626
C            2.89581724148083        3.02673109760545       -1.34068693469358
C            0.30921313454165        3.69958946524698       -2.04207320384851
H           -0.27225619572085        2.78095987985563       -0.20205639877437
C            2.65494304247608        3.70711082274212       -2.52081670650607
H            3.90780789509658        2.76342622891612       -1.06573705086325
C            1.35880960727753        4.03689512769648       -2.87929839734910
H           -0.70313648462930        3.96533892465939       -2.30803111724866
H            3.48041658700851        3.97795844324258       -3.16324596798432
H            1.16930583907115        4.56149160843588       -3.80434323748193
C            2.10557317608834        2.79255846802861        2.00728098881909
C            2.37280613336054        1.99444124310755        3.18446455135307
H            2.87983767353641        3.55414049107961        1.88032172402383
H            1.13418857922633        3.27694271950741        2.11064744793838
C            2.58660872350660        1.26361012655579        4.10708364528521
H            2.75511259801597        0.64998790407934        4.94036492951369
Cl          -0.41558078918958       -1.09397876612282        2.84613936676254
Cl          -0.92624550348380        1.95405012818335        2.23302179955730
O           -1.56916320918502        0.30882939848564        0.29292825447314
O            0.34976787621460       -1.33637264454207        0.26064945011483
C           -1.34987380163060       -0.83991490149649       -1.74960396613232
C            0.05708578096989       -0.57262569841526       -1.87534197973326
C            2.25268089047725       -0.90866544768908       -1.02293529366447
C           -3.36391133860626       -1.01416933585111       -0.46449409185038
C           -3.87440139265642       -1.93682847888601       -1.42445842937426
C           -1.95676904447963       -1.52810039729322       -2.81289332285192
C           -3.16772875795091       -2.12234952234450       -2.64328256133693
C            0.57974650008809        0.00675534147954       -3.04430746031072
C            1.91191553420986        0.25713074804669       -3.14545870615771
C            2.79238966707136       -0.20206903841111       -2.13067124469629
H           -1.38384011411542       -1.67410262595272       -3.71421973681582
H           -3.59997989152530       -2.74495763398880       -3.40892247949841
H           -0.11095438165689        0.33320163782204       -3.80482674342512
H            2.31761402662801        0.79844133710472       -3.98411166892301
C            4.17109637924029        0.02453618338303       -2.20764962110631
C            3.14769208368977       -1.50151103782371       -0.10677990581518
N           -2.07736433076966       -0.55971565987511       -0.62850606940061
N            0.89559797503168       -0.97847992417062       -0.89197062106702
C           -4.23227077807462       -0.64001518521764        0.58301267175783
C           -5.07725840006159       -2.60923103711316       -1.19692095931769
C           -5.40984060077301       -1.35264930032968        0.79292965178103
C           -5.81231707986087       -2.36738795418368       -0.05774848896600
H           -5.41690351268346       -3.31944511612241       -1.93458658715384
C           -4.05678739604840        0.57428740246307        1.46509905054701
H           -6.03523870258904       -1.08574129236045        1.62962387184344
H           -6.71850692074565       -2.91442770138939        0.14398911962468
C            5.01581663230251       -0.45089107198935       -1.23176206651235
C            4.50487759136868       -1.24007885895917       -0.20865461701206
C            2.73040622059921       -2.50404269020023        0.94245734357565
H            4.55436211874656        0.58261085200839       -3.04779720072235
H            6.07442483283320       -0.25098118856111       -1.27379820829855
H            5.17913631859841       -1.67651988511752        0.51121344035337
F            2.33149116546478       -1.96911937423309        2.09353901619320
F            3.78244546790127       -3.29365478683233        1.26928730266684
F            1.79611892379499       -3.36092718739587        0.51244135263296
F           -3.29623628408426        0.36073030049146        2.53632283412492
F           -5.25359116233755        0.96965029848157        1.95774513095161
F           -3.60992302033493        1.64129741205992        0.79480090348226
