63
 energy: -131.234673654092 gnorm: 0.000490553478 xtb: 6.5.1 (b24c23e)
Si          -0.40236566036871       -0.60832542110487        1.23966589507446
O            0.08728375071335        0.76619331240149        1.93309063627168
C            0.23331067981045        2.09628131218834        1.47730486714510
C            1.42730837356615        2.20867298786523        0.56342399896298
H           -0.65980911224042        2.38873125066783        0.92578691402084
C            2.70693637505626        1.95261818808616        1.04146449571732
C            1.26069317292210        2.57171346881787       -0.76669352533596
C            3.80390652466425        2.09687475676327        0.21110799197570
H            2.83834847681607        1.63823323689701        2.06477745816326
C            2.35861988705774        2.70808559052265       -1.59879673076244
H            0.26548290213909        2.75848484869328       -1.14361793591703
C            3.63360230457687        2.48513929509139       -1.10731959422668
H            4.79664740093925        1.91509410799343        0.59597494861012
H            2.21955358023979        3.00094315005575       -2.62976015090689
H            4.49257115531327        2.61465056504700       -1.74921073723197
C            0.38974191889999        2.99963437611971        2.71354536897091
C           -0.89016611189128        3.25594840926199        3.33807491349136
H            0.84466386477695        3.94700769528440        2.40999687766924
H            1.04423706161423        2.49752611538354        3.42878362755476
C           -1.96025153737367        3.46969520483026        3.82778808527116
H           -2.89518181393328        3.64739666948435        4.26792808183122
Cl           0.18865171849269       -1.71082497598149        2.88736128376587
Cl          -2.17440318737465       -1.78193491472454        1.09336178692615
O           -1.10870266202719        0.40294853192166       -0.20963957923065
O            0.79155471181196       -1.30791790124264        0.20114234675491
C           -0.97618535844844       -0.93147034835157       -2.05691742775881
C            0.45891310415772       -0.78706065035174       -2.08260682919735
C            2.66441099582912       -0.86391409022172       -1.13678471988044
C           -3.11136269539324       -0.27805067800999       -1.21593636894384
C           -3.74014621883143       -1.19735865379764       -2.09809471604192
C           -1.59171450541565       -1.73731888762060       -3.03159994547213
C           -2.93822608537221       -1.92451909768836       -3.01489323793946
C            1.00596681465615       -0.48890274966386       -3.34170582371473
C            2.33336955447428       -0.24160482951719       -3.48836077252253
C            3.20219825885468       -0.42633395022375       -2.38215389050263
H           -0.96183320515287       -2.27917781855106       -3.71848047223276
H           -3.41281528657482       -2.62100489870942       -3.68672509665462
H            0.32712407742817       -0.37587597183378       -4.17140494680312
H            2.74532698558775        0.07360055608332       -4.43258107722755
C            4.57492255108969       -0.22587267884097       -2.54659055452372
C            3.59278830622748       -1.21562335118068       -0.13316560641036
N           -1.74365003304489       -0.24086076277120       -1.18383128341697
N            1.29217201706024       -0.92939139156725       -1.00751780012125
C           -3.93883223901866        0.55038992121218       -0.42738743197024
C           -5.12815859661419       -1.37191155870373       -2.05885698742173
C           -5.30789271351857        0.33910713986706       -0.40697502376954
C           -5.90279461328187       -0.64053627790289       -1.19124359578574
H           -5.57473406825445       -2.09626758551204       -2.72221642063517
C           -3.43077585565871        1.73689773089517        0.35040661594894
H           -5.92534990815616        0.96034101933191        0.22201578323659
H           -6.96810167865914       -0.79493221295464       -1.13735238876868
C            5.44930849817566       -0.47047049141967       -1.51375044873410
C            4.95245502053187       -0.98454814548956       -0.33021104269128
C            3.25822086283134       -1.87772042610886        1.18604227509510
H            4.93101650476714        0.11802400469938       -3.50520707246207
H            6.50710235320489       -0.29744709900439       -1.62651995857076
H            5.64161038293242       -1.23193419288792        0.46084167378768
F            2.42102076962402       -2.90880076900222        1.07665465226320
F            2.81260542573349       -1.00453685403856        2.09042201840983
F            4.36817727547231       -2.41367392230030        1.74521315064228
F           -2.86798866198262        1.44714717626150        1.52181207907295
F           -4.43655671942779        2.58731325916942        0.64307072401983
F           -2.56707809002674        2.48165367637363       -0.36600235685884
