63
 energy: -131.235840081217 gnorm: 0.000334580599 xtb: 6.5.1 (b24c23e)
Si          -0.29238844619672       -0.11844352835192        1.28820048474372
O            1.19857758902875        0.49639813239426        1.01882500807300
C            1.93721328164059        1.56825696579495        1.57334048559044
C            2.25186468065859        2.50079741849322        0.42484579727511
H            1.30222301408528        2.09312606316727        2.29939231200042
C            3.53704834769731        2.80341754089556       -0.00056541943704
C            1.17037237739468        3.03987781618208       -0.26697088520932
C            3.73540160481781        3.62795618200710       -1.09663938589289
H            4.39610670638252        2.40900050719661        0.51898879729278
C            1.36902566814436        3.85146388754827       -1.36692900227920
H            0.16930624616343        2.81833723015511        0.07313040543303
C            2.65587324410646        4.14717488457994       -1.78713135125950
H            4.74206934962047        3.86432247985452       -1.41005985780614
H            0.51949386631061        4.26295897390926       -1.89203530435010
H            2.81452160612024        4.78764487762099       -2.64253356961404
C            3.15775811837286        1.00207917662217        2.30911233976153
C            2.71603828342277        0.09891326439297        3.35316465934587
H            3.72292035109590        1.82714170423122        2.74965054036283
H            3.79402476428626        0.45352541289109        1.60836510706056
C            2.29707402493080       -0.65591352077947        4.18041325490769
H            1.93911152531793       -1.31834295675226        4.90980178506152
Cl          -0.80877210527734       -1.78680619063120        2.31185271698552
Cl          -0.88739648012904        1.33455846464188        2.69155438881417
O           -1.58710427012312        0.44388849421296        0.27568771246182
O            0.19487342429434       -1.30910554477592       -0.12397755382668
C           -1.39276411430943       -0.21326843206881       -1.97551371889147
C            0.03329719762932       -0.02499008534179       -2.01245090506018
C            2.17192752136543       -0.68750504069240       -1.20609612078054
C           -3.46564637810311       -0.47410451133227       -0.80456487508138
C           -4.00885736966329       -1.13102380266380       -1.94750494014508
C           -2.00747284816498       -0.61412146189402       -3.17258495809009
C           -3.26585038312434       -1.12970921996360       -3.15844670368536
C            0.63423236479897        0.76343144453960       -3.00802407377793
C            1.98151545797780        0.95122711587280       -3.00878896577506
C            2.79364806853418        0.22822804305192       -2.09578974184074
H           -1.41196448069524       -0.61734147747302       -4.07111589600682
H           -3.71103897902810       -1.54790759957236       -4.04587058877150
H           -0.00550251002631        1.28860666783090       -3.69879086603816
H            2.45080950311563        1.63747225405779       -3.69414611031661
C            4.18327026195640        0.38738748988067       -2.06882654885517
C            2.99209843665067       -1.54328802127978       -0.44127749290703
N           -2.13809345861947       -0.11947089624469       -0.83594131303735
N            0.81011797058618       -0.70188870981541       -1.13446480299971
C           -4.34411416246557       -0.23722094357266        0.27289271940473
C           -5.27427921986230       -1.72036420271654       -1.89451031623185
C           -5.58784763367320       -0.86269977131751        0.30018432492209
C           -6.03703205666919       -1.64349038334696       -0.75059737466670
H           -5.63950058962422       -2.23407322943372       -2.77002301672177
C           -4.10767497052314        0.74269110145120        1.39930776504749
H           -6.22529816589202       -0.71092158713181        1.15644241409608
H           -6.99534732178535       -2.13242808200919       -0.68938003174140
C            4.95719859383873       -0.35671710580328       -1.20851688586359
C            4.36399003113406       -1.34441205328042       -0.43147998528354
C            2.47263374611732       -2.76146234003873        0.28432795082933
H            4.63246174263783        1.10633785274246       -2.73574337612351
H            6.02473318788290       -0.21202931986377       -1.16400345071255
H            4.98271106256468       -1.98575418825219        0.17676397337826
F            3.47117735374298       -3.66325348566702        0.44196536638672
F            1.53818198171485       -3.41908747864621       -0.41696879484088
F            2.01065696355285       -2.53988522144801        1.51082451367898
F           -3.49159386645686        0.20853632879718        2.45053698554825
F           -5.29430132654347        1.19044873408802        1.87557159944939
F           -3.47332238273874        1.85350288305880        1.01333177600384
