63
 energy: -131.232976075466 gnorm: 0.000632196897 xtb: 6.5.1 (b24c23e)
Si           0.11892824273751        0.49010042088332       -0.66518237307880
O           -0.13715426354288        1.41555409544489        0.62409564299998
C           -1.01772068453006        2.50969181580016        0.78069825173867
C           -0.39578308389728        3.80600431553382        0.33220828458285
H           -1.92216130830520        2.33432716567092        0.19157677933520
C            0.94631220991057        4.06611414187429        0.56820919912119
C           -1.17324901226376        4.75779148770316       -0.31404707444741
C            1.50502768462305        5.26408856385920        0.15911104712492
H            1.54888711295740        3.31737736378057        1.05517821795510
C           -0.61476740137569        5.95801475646584       -0.71462609132676
H           -2.21419434586538        4.54922771098401       -0.51314354273635
C            0.72557571653237        6.21359800843798       -0.47873110616889
H            2.55280397002253        5.45585816019588        0.33882559628745
H           -1.22490014400786        6.69205426191033       -1.22027319095310
H            1.16248631317807        7.14873530592400       -0.79786045056632
C           -1.38770784794941        2.55983088398769        2.27437286525568
C           -2.09014783563566        1.35447962153951        2.65604376247050
H           -2.01484327130982        3.43446232978312        2.46192596469532
H           -0.46725048687356        2.64250175427730        2.85647812459426
C           -2.65860787843641        0.33524341341905        2.92125141211711
H           -3.15533399682656       -0.54839193204743        3.19096698655365
Cl           1.92881701764069        0.66959680325531       -1.74468094702486
Cl          -0.91121508565823        1.51960018900193       -2.18688726828597
O            1.00794330547182       -0.62645959883822        0.50342919606393
O           -1.05863667169436       -0.77166650813126       -0.92236138287553
C            1.01544198523605       -2.69532930047359       -0.49448531456306
C           -0.35823121990084       -2.87022813793662       -0.10141244232809
C           -2.57754174630611       -2.07873813563540        0.29757279597555
C            3.05644784907062       -1.51181303225684       -0.18039881668465
C            3.71906479603095       -2.39861302868820       -1.06814337076926
C            1.68686771983043       -3.67626423833951       -1.24398887326421
C            2.98721812930257       -3.49119185898935       -1.60350555082527
C           -0.67610513992770       -4.08816115172141        0.52315008098991
C           -1.83788253218997       -4.22288883487960        1.21790599725641
C           -2.80675260792329       -3.18539041134040        1.16579158541085
H            1.11891429575193       -4.51791514080192       -1.60667928776241
H            3.48219651365674       -4.17388669666270       -2.27487284650398
H            0.07797197525212       -4.85815455295574        0.54256900208885
H           -2.04201360298207       -5.10276188872022        1.80526645711436
C           -3.99138405221114       -3.27552480843964        1.90102319599515
C           -3.68116275994877       -1.24694031381780        0.01827789959868
N            1.70496547647175       -1.62509258222693       -0.03647620734687
N           -1.31215529750278       -1.90258422238033       -0.20693333847728
C            3.82611749018629       -0.57182222526203        0.53463565347759
C            5.07046434915730       -2.19095291850255       -1.36802997845113
C            5.15901684385797       -0.39224632596318        0.20586589804603
C            5.76873091083724       -1.16467130304908       -0.77624107174328
H            5.55202419082704       -2.85361052138818       -2.07025259409611
C            3.30321940357992        0.15544432695755        1.74865140831454
H            5.73816350471093        0.34564548737159        0.73820043542473
H            6.80039385041245       -0.98451333201340       -1.03170214727040
C           -4.97812069393987       -2.32290225807869        1.76286136916204
C           -4.83844710110754       -1.35243806477005        0.78555678080364
C           -3.78527960858758       -0.30185183023529       -1.15418505258318
H           -4.11769584129883       -4.10881649824554        2.57478287367660
H           -5.87428477087341       -2.36305112055406        2.36054511873875
H           -5.65308449286824       -0.67292869388396        0.59236698033318
F           -3.14996394446810       -0.72618410417636       -2.24579020255857
F           -3.41166527863189        0.94731281916915       -0.87031883696501
F           -5.07984795826334       -0.19498148315872       -1.54040612558731
F            4.33286461125454        0.51627686245834        2.55077098661104
F            2.53430333442103       -0.62599000560847        2.52278143801429
F            2.64401716417922        1.28581599448148        1.51059719731830
