63
 energy: -131.232061059214 gnorm: 0.000180417163 xtb: 6.5.1 (b24c23e)
Si          -0.63687119008272       -0.33140362776914        0.92290445704553
O           -1.66992101247150       -0.33211706196724       -0.30462337173362
C           -2.06388331169306       -1.33031000360724       -1.22290446311735
C           -2.57293143505610       -2.56082673861339       -0.52177502124226
H           -1.19525855316169       -1.58569014309877       -1.84017801061213
C           -3.49353545017667       -2.43678260124062        0.51075718578473
C           -2.11500968165877       -3.81991820092983       -0.88295681610795
C           -3.94657840701883       -3.56069212253626        1.17693675358903
H           -3.82927606037672       -1.45561860045865        0.80821533803196
C           -2.57688062040198       -4.94375754338954       -0.22093179939296
H           -1.38430777459734       -3.91498328285246       -1.67295069246788
C           -3.49209518704678       -4.81589393958116        0.80988708278844
H           -4.65069216695229       -3.45348205332937        1.98819769193353
H           -2.21209063354808       -5.92053201696512       -0.50332833544937
H           -3.84387016571108       -5.69340033604696        1.33255751191032
C           -3.15892875069838       -0.70186369946148       -2.10399081794959
C           -2.66192712604874        0.49272755450583       -2.75089610021041
H           -3.48064024202278       -1.43033075435928       -2.85187370250998
H           -4.00813706958483       -0.44007525373222       -1.46840784166166
C           -2.21660454831334        1.48775371610407       -3.24441490280646
H           -1.83721163927067        2.35299890008563       -3.69960171213029
Cl          -1.65607756974710       -0.52480379239247        2.73511027974858
Cl           0.30236216955885       -2.22212221805317        1.24543220399021
O            0.84093575090605        0.09891925966945       -0.12490509703549
O           -0.70092761225142        1.36960060979965        1.33931477735175
C            2.02779667810945        1.68855514208492        1.05604703869577
C            1.07854449221850        2.66829794522540        0.59896295019288
C           -1.15828409640672        3.21031089522004       -0.05344409949775
C            2.90814987957115       -0.50706723948539        0.75720600000027
C            3.85579817376928       -0.28565652052930        1.78779034420564
C            3.08100856858980        1.99450097801369        1.93277466300721
C            3.91692668325667        1.00993188636694        2.37061390769116
C            1.55426932316393        3.85474471031579        0.02002040871172
C            0.72727077258312        4.60202045963883       -0.76237175115456
C           -0.64483988487274        4.24792556824342       -0.88387601841474
H            3.14252478785346        2.99753992372897        2.32347278286453
H            4.65062402273139        1.20361667732485        3.13614929311851
H            2.60468146468872        4.08096239683861        0.10806509506597
H            1.09631700722628        5.45277705438971       -1.31147560838434
C           -1.49369968926047        4.92804530701055       -1.76078298009666
C           -2.56055514634280        3.08103987632515        0.03943623984463
N            1.94151707940877        0.43001151446107        0.55467242618998
N           -0.25934319714015        2.41329669334415        0.59494975615495
C            3.01046198437713       -1.66858756374491       -0.03490999327903
C            4.71745717514814       -1.32684134733529        2.15128812308107
C            3.87476244640749       -2.67666075161804        0.35820182916774
C            4.67929923227596       -2.53039569153765        1.48298865444767
H            5.41400677524552       -1.16629696527933        2.95949475338164
C            2.40710761439952       -1.74397128573460       -1.41670762960573
H            3.94009817822274       -3.57559472228498       -0.23374532958548
H            5.31843435261817       -3.34325156692493        1.78758047916335
C           -2.83745661468734        4.62637827188610       -1.80886493121117
C           -3.36648537449895        3.74961117154940       -0.87542669544015
C           -3.29318245724027        2.39858271384369        1.17085325953992
H           -1.07468462808705        5.69123615744460       -2.39852231142978
H           -3.48739260123463        5.11137056929696       -2.51893076794336
H           -4.43400546559485        3.60344777097131       -0.83370734699603
F           -3.59913139614158        1.11734483374709        0.96766673659686
F           -4.49260434922525        3.00526345463464        1.35982052108494
F           -2.67438111566158        2.52079693580672        2.34687841301140
F            1.16342371175135       -2.19984586144040       -1.53917728743229
F            3.15344139665673       -2.56022707682079       -2.19466694480611
F            2.45465950355313       -0.54839436477971       -2.03618457770297
