63
 energy: -131.237649112681 gnorm: 0.000522888119 xtb: 6.5.1 (b24c23e)
Si          -0.12350946137866       -0.44278998109947       -0.15718589925531
O            0.29577560864925       -1.98691092651428       -0.32035985799488
C            1.09935581277758       -2.87496037915551        0.43928210259526
C            2.53367509459868       -2.74255953790037       -0.00698606456976
H            1.01926319592651       -2.61758004945770        1.50024172102239
C            2.89056395274564       -3.06033883651977       -1.31154626236371
C            3.50012208995950       -2.25518440892814        0.86141214860365
C            4.19526894885763       -2.89653580055136       -1.73843864773992
H            2.13743853109322       -3.41385311416493       -1.99836358691007
C            4.80466633549663       -2.08627692082060        0.43065497140616
H            3.22716501016973       -1.99182160866274        1.87245422296952
C            5.15541841712728       -2.40753678161456       -0.86882475128226
H            4.46283948133641       -3.14175559307605       -2.75568564451024
H            5.54758707042405       -1.69856048129577        1.11334013483601
H            6.17262423927298       -2.27056932038861       -1.20607913265158
C            0.55873486124112       -4.29873504385461        0.22037413942843
C           -0.55194800245510       -4.58741456884710        1.10151553925536
H            1.36381164623400       -5.01573780935988        0.40449713651083
H            0.22894233447973       -4.38836372332630       -0.81632709855641
C           -1.45392577678277       -4.81787692862760        1.85263978535672
H           -2.25699276184410       -5.01691356199877        2.49690613372413
Cl           0.96684893704621       -0.14746670329683        1.73950618689145
Cl          -1.17257301066628       -0.61509703471741       -2.00220505177388
O            0.51040783001217        1.04945486362662       -0.79072686418066
O           -1.48751910228026        0.21775534733410        0.68961215535260
C           -0.43491922595139        2.75363460259694        0.45650889739163
C           -1.74946988192205        2.40163973763006       -0.03623123670312
C           -3.46468973461081        0.77387119343815       -0.43027396572215
C            1.92994086506631        2.37871283500620        0.50226914800852
C            2.05865295177610        3.29933589412668        1.57501668204491
C           -0.28950629055390        3.81268813436386        1.36421343285946
C            0.91309995754468        4.04101303919453        1.96726502005464
C           -2.54164066965016        3.39510289339347       -0.62848298602189
C           -3.70320397324263        3.06064824128794       -1.25904308927807
C           -4.17931237813717        1.72408563264477       -1.20927348468544
H           -1.17277204606206        4.35886588369192        1.65441963453467
H            1.00936590542181        4.77252706478126        2.75303724996622
H           -2.15457199106234        4.40089015756744       -0.66322683793614
H           -4.26819755866041        3.79530499320499       -1.80918355518915
C           -5.34340683949171        1.33867796259541       -1.88236309910596
C           -4.05244282063511       -0.48828610446844       -0.20690003535776
N            0.67851017468164        2.09860043508949        0.04094359831003
N           -2.25186461627935        1.14303989346986        0.07350515696859
C            3.09509239715495        1.80006558483021       -0.03954538426158
C            3.30128077396672        3.46097440711437        2.19716909684766
C            4.30473579663232        1.97084526948969        0.61727117505093
C            4.40042162464750        2.75895591781785        1.75670143017261
H            3.37826072868076        4.14104029800712        3.03121182880408
C            3.12756547892715        1.13094851620561       -1.39181504614098
H            5.18763900472775        1.49578973410510        0.22015378667940
H            5.34850914358620        2.85322783580931        2.26101156579981
C           -5.82044782444757        0.05328050157608       -1.77255699639376
C           -5.19853593322413       -0.83664204389323       -0.90793490598323
C           -3.58202904210176       -1.46664830702163        0.84491424318039
H           -5.85551677499504        2.06892287071735       -2.48932131267005
H           -6.69734923240002       -0.25647865655859       -2.31745824190086
H           -5.62441650691786       -1.81642319550889       -0.76237888806836
F           -3.31261320054971       -0.86787391959835        2.01668013831385
F           -2.53648095755891       -2.21751123245944        0.50844728715551
F           -4.56366335739533       -2.34755192171587        1.13988790038520
F            4.38816141999847        1.10659671811348       -1.87362556729710
F            2.42600673214064        1.82626288865225       -2.30405520762778
F            2.71539661886245       -0.13452885208262       -1.44012094835402
