63
 energy: -131.237641824700 gnorm: 0.000626668482 xtb: 6.5.1 (b24c23e)
Si          -0.25542385888462       -0.28246888998994       -0.45656968373116
O           -0.92966440396694       -1.58410756815612       -1.12277396463521
C           -1.08740101259967       -2.92168769089991       -0.68688856690330
C           -2.28294755751122       -3.04432534733858        0.22227532352286
H           -0.17971590175640       -3.23238986854091       -0.15990342995139
C           -3.51634557678156       -2.55931393476128       -0.19274471594750
C           -2.16977807408531       -3.63563797357043        1.47242232982389
C           -4.61983994864300       -2.65680251032360        0.63446539851357
H           -3.59931657476754       -2.07995344194175       -1.15602871861024
C           -3.27614658673245       -3.73673251225412        2.29786661597171
H           -1.21005890060585       -4.00417805600760        1.80423373867075
C           -4.50213849199539       -3.24720040436521        1.88137034885544
H           -5.57259893870836       -2.26694863473994        0.30702028624420
H           -3.17797653275803       -4.19217954116170        3.27264398608097
H           -5.36326640889630       -3.32023588018981        2.52988908379780
C           -1.28016546565078       -3.79554122326935       -1.93846332892998
C           -0.09900041502865       -3.81701370524792       -2.77401483816735
H           -1.52250476946538       -4.81224678963636       -1.61628969324857
H           -2.11744276245672       -3.39696254485814       -2.51595044304495
C            0.87231164957784       -3.82924349640969       -3.47199299889338
H            1.72859467848495       -3.83404442590045       -4.07750346918444
Cl          -0.76894707921585        0.74265282398275       -2.27140975022733
Cl           0.20202807933024       -1.20339505687088        1.45934170292194
O           -0.79462703910111        1.06549723661231        0.52126222436626
O            1.38665092175535        0.23066773409740       -0.68838435649290
C            0.69384543940011        2.78528199552549        0.13303878808565
C            1.76186378498866        2.02014406868773        0.73829553541606
C            3.07098050923283        0.02168401302167        0.92702627772101
C           -1.60911502076662        3.02384606996322       -0.47337049507400
C           -1.30779546790835        4.24457180668010       -1.13462824869062
C            0.96572396828618        4.07176959972883       -0.35539127221658
C            0.00955287527440        4.76357283084746       -1.03708437875409
C            2.50736685879819        2.61574553052798        1.76661127491712
C            3.40883705331081        1.88197034684236        2.47770932923722
C            3.69148194230895        0.54418164696871        2.09536066315835
H            1.97299574754791        4.44671670568320       -0.26945765750419
H            0.23631996581531        5.70431186124235       -1.51169852600850
H            2.27005479619536        3.63041953395016        2.04360498130547
H            3.91131782456309        2.29671438343389        3.33624721201749
C            4.58550947978314       -0.24508351586614        2.82563590500020
C            3.51954241982579       -1.22173906392894        0.43601922284046
N           -0.57817635161359        2.31714392617817        0.07214656393393
N            2.08521958008767        0.76119239921486        0.33816893199686
C           -2.95637310105419        2.61754345795012       -0.39675836897339
C           -2.30993188338737        4.91914794963934       -1.84006381921127
C           -3.91886700476125        3.30755624212833       -1.11963636941269
C           -3.59463963925745        4.42880711685336       -1.87096402554220
H           -2.05348700806925        5.82953630753279       -2.35902469210625
C           -3.44796489152023        1.52505206426957        0.52226939937188
H           -4.94362693240016        2.97404785456678       -1.08155342985613
H           -4.36106686119770        4.92985060475207       -2.43967878760352
C            4.89857041692176       -1.51773583518940        2.40663970740937
C            4.39672198508841       -1.98119717905769        1.19942905055877
C            3.18200671647841       -1.76492714658590       -0.93271619295291
H            5.02232592049238        0.16457852945782        3.72309389250181
H            5.56143910156582       -2.14055379294282        2.98499429357790
H            4.70714546413622       -2.94721112879252        0.83451984197834
F            3.27967984042058       -0.84330149181220       -1.90016781710627
F            1.98817052449132       -2.35157571407794       -1.02077586883320
F            4.06579648376558       -2.72198712714067       -1.29259904224343
F           -4.77998920396223        1.63387264865299        0.71799020928076
F           -2.91954052545784        1.61131215627976        1.75246172140702
F           -3.26839683697877        0.28210104656720        0.07549210953455
