75
 energy: -118.548751244638 gnorm: 0.000325527572 xtb: 6.5.1 (b24c23e)
Si           0.17258454639567        0.12918412868674       -0.82839844266530
O            0.14873098013434        1.35775777722435        0.22626235293337
C           -0.27310927933957        2.69304553903613        0.06219245074258
C            0.84518860724177        3.54205965238707       -0.48483253026993
H           -1.12069563696387        2.72687527763915       -0.63112911774725
C            2.12475973068956        3.41369342913094        0.03704538270649
C            0.61479218292942        4.44933697654805       -1.50845176067062
C            3.16269102833666        4.18228145237827       -0.45599827731595
H            2.30082032296240        2.69365571116234        0.82073805374515
C            1.65246723032345        5.22355340941195       -1.99724039429716
H           -0.37493534771121        4.53739784398303       -1.93115456560579
C            2.92675874150407        5.09267778177125       -1.47211831209411
H            4.15678941856909        4.07071458605707       -0.04765521072099
H            1.46716864409367        5.92525522438844       -2.79710253770256
H            3.73634856457666        5.69411229929996       -1.85912895830685
C           -0.72081156397942        3.20652213885231        1.44318258685872
C           -1.79569283918479        2.39556004521997        1.97260354061866
H           -1.04684945646837        4.24512092185638        1.34595223890324
H            0.13003021085290        3.16274681046973        2.12723671211682
C           -2.67130180775893        1.69416869575345        2.38915340734617
H           -3.44370688082891        1.09240254486150        2.76532377138303
Cl           1.94349050870728       -0.33520065925247       -1.87533226943359
Cl          -0.57393007312471        1.14214488793424       -2.57861995471873
O            0.72074203173611       -0.85468055145872        0.56924212363655
O           -1.24740249763201       -0.83026077955277       -0.96748309169091
C            0.24120022518108       -3.02421585818821        0.03712456028083
C           -1.14482807622129       -2.77613095445679        0.32503449039058
C           -3.11210830250038       -1.36373415799531        0.41774073342265
C            2.54063973851508       -2.32931716017967        0.23721120716845
C            2.94106009347734       -3.57518460354554       -0.31958034674357
C            0.64394573646129       -4.29378807707007       -0.41792455235696
C            1.95690342001061       -4.54252327962542       -0.65698639243736
C           -1.81004007836979       -3.77879307993140        1.05382580160059
C           -3.04166617579050       -3.54571998664730        1.57089017912143
C           -3.70030791319925       -2.31421068535526        1.30449724039260
H           -0.11682675137953       -5.01950542997862       -0.65592131561100
H            2.27596793391406       -5.47602381519078       -1.09267641976736
H           -1.27528390280498       -4.68811023496577        1.27470943240270
H           -3.53299367011220       -4.27317040601588        2.19664814210717
N            1.18841134480629       -2.08956089156414        0.30415989765108
N           -1.82306113297260       -1.63803401782905       -0.01680068142104
C           -3.88826327114333       -0.23603378291269        0.04611009978192
C           -4.94678187070448       -2.08220944650649        1.89159247004812
H           -5.34211965071695       -2.81965007109190        2.57329690998124
C           -5.12682883935564       -0.06612244598915        0.65242272738102
C           -5.65155330409226       -0.94443367452497        1.58705474299750
H           -6.61153874644720       -0.74817327726814        2.03939481762316
C            3.53030263448345       -1.42893709150004        0.70766075120519
C            4.29637235007243       -3.85648380204925       -0.51965658261623
H            4.57142087298505       -4.80136151536474       -0.96255243657171
C            5.24615064552415       -2.93963716810194       -0.15034108978688
H            6.29438808751043       -3.13571142053355       -0.31535614852122
C            4.85414202163072       -1.76335288234695        0.47900096325410
H            5.62869960133007       -1.09177990975732        0.80636516800359
H           -5.71641524372137        0.79262523551484        0.38268704570967
C            3.20933181601605       -0.20617102792110        1.54015412977359
C            2.75746757137829       -0.67828520005367        2.92908604870954
H            2.56225880478478        0.17967709376670        3.56773686307828
H            1.84391836706121       -1.26248359213444        2.86089379127358
H            3.53102492108909       -1.28897476444156        3.39291215121190
C            4.36839682352551        0.77907560617396        1.68231051212693
H            5.18097817218692        0.36591144859963        2.27672265152253
H            4.74554887598070        1.07431735423333        0.70603002915724
H            4.01384772966978        1.67184532666703        2.19377170751669
C           -3.51717934401807        0.73827511854625       -1.04467183523858
C           -4.21330575161208        2.09687325613353       -0.96633979044793
H           -5.26455289708984        2.03707199308605       -1.24042042434517
H           -4.11775792423410        2.52551338453587        0.02912046036162
H           -3.72954016462278        2.76597389992805       -1.67447587885906
C           -3.81593411403255        0.08101224134456       -2.39770370395192
H           -3.52374643234292        0.75335309434803       -3.19890484304953
H           -3.25093565939873       -0.83961460955693       -2.51193755584383
H           -4.87827583690742       -0.14294206385683       -2.48446546558067
H            2.38246749468336        0.33247719587473        1.08173752382409
H           -2.45567859455880        0.94288699191598       -0.99335298368860
