75
 energy: -118.557752062637 gnorm: 0.000557487902 xtb: 6.5.1 (b24c23e)
Si           0.02711176714226       -0.74746245640220       -0.79896410952297
O           -1.07844424984739        0.22988323774795       -1.50318893342996
C           -1.92839079320158       -0.05410873138287       -2.59299188375732
C           -2.90080913582141       -1.14817316707237       -2.23515979372479
H           -1.31498177125712       -0.37313058879509       -3.44397181937748
C           -3.61635715075219       -1.07242945246240       -1.04761790190253
C           -3.06811295474305       -2.24746922554165       -3.06418376356558
C           -4.48925448521619       -2.08442942319266       -0.69396547206478
H           -3.46923414427678       -0.22572795620409       -0.39290721336173
C           -3.94666555689458       -3.25666135352490       -2.71138672996102
H           -2.49500999645523       -2.31911096475631       -3.97641035510382
C           -4.65819759080459       -3.17713096146666       -1.52683816000285
H           -5.03656473325283       -2.02485802262180        0.23553508282258
H           -4.06660805736312       -4.11269208732762       -3.35868017458881
H           -5.33686988310466       -3.96970852635915       -1.24808085025697
C           -2.67896289429901        1.23911346526777       -2.95587802854955
C           -1.76892715160239        2.24631941214037       -3.45356532720409
H           -3.42227922152375        1.00503492218370       -3.72239175990737
H           -3.19302977956048        1.61497423012826       -2.06697209249650
C           -0.98193959390959        3.05231376652109       -3.85733237072202
H           -0.30782612028358        3.76439563965324       -4.22915746084596
Cl          -0.67704301033891       -2.25305745448098        0.41257536964829
Cl           0.42394140010942       -2.00794839871303       -2.48216979212012
O            1.67286023938478       -0.37447959208139       -0.92762658113404
O           -0.01912157230161        0.36004573120151        0.68791982876039
C            2.09742994772995        1.84551424378406       -0.19853861074779
C            0.75884373758989        2.33986294166776       -0.18736293742830
C           -1.51950245943992        2.15254147014159        0.58264051480482
C            3.68411308887283        0.06038940434054        0.18353385037773
C            4.75782054735603        0.98294685031759        0.10001371569316
C            3.16986250666223        2.76673690193061       -0.21249919838200
C            4.46185351438915        2.35343561081950       -0.14064979635930
C            0.45189342209260        3.58637393398469       -0.78402093036359
C           -0.81701100763565        4.05695823410295       -0.78590747610095
C           -1.83846210276128        3.36414374568533       -0.08467636894250
H            2.94383607498607        3.81918939033754       -0.25326795925521
H            5.27483327754920        3.06014832908649       -0.19793110318804
H            1.22613826438135        4.10523059561460       -1.32269889204260
H           -1.07558157896666        4.96081311472318       -1.31397874087919
N            2.41307314657338        0.50795570286657       -0.15314088893173
N           -0.25212061520350        1.65133250616618        0.40687489481282
C           -2.50409946970186        1.52524923627041        1.39287902450418
C           -3.14525832168729        3.86275520832684       -0.06228354247597
H           -3.36317266355420        4.77402193443090       -0.59762713070659
C           -3.78087854939253        2.06135146479569        1.36888496436467
C           -4.11965003112492        3.19188732295458        0.63120841615246
H           -5.13715679644173        3.55157994837121        0.63986461584227
C            3.93546404212128       -1.25788096507801        0.60106167988114
C            6.07113056052212        0.54392586854463        0.28773939185080
H            6.87604434181615        1.25876344680928        0.20801913880006
C            6.32105149038879       -0.77898191551257        0.56841635054637
C            5.25833969813005       -1.65188757989535        0.75038383019334
H           -4.55549735446473        1.59737190736382        1.95512714434411
C            2.84299173171435       -2.23036670938812        0.96816624774421
C            2.74297663143982       -3.35275248848340       -0.06547777291761
H            1.91465117232714       -4.00985986710323        0.18511591104430
H            2.56453172091324       -2.94451265866569       -1.05579309722939
H            3.66135260223534       -3.93551391240448       -0.08977700946679
C            3.07167679782330       -2.80901097669968        2.36811512493402
H            3.92172117614683       -3.48586669038193        2.39156386514847
H            3.24100466481083       -2.01308816535297        3.09089160544749
H            2.18707188665944       -3.36504842368433        2.66763191412794
C           -2.18446255315473        0.40437706585453        2.35783870048601
C           -3.40596046516792       -0.25546083206468        2.99428218354019
H           -3.92756709356890        0.42109802964596        3.66925856938613
H           -4.09615654177030       -0.61712136819913        2.23636042379628
H           -3.07166775982804       -1.11339698745124        3.57261507834202
C           -1.27586635497797        0.96482857500057        3.46096996880397
H           -1.05037378376982        0.18286681142045        4.18114501062569
H           -0.33667636528535        1.32562449213067        3.05080933163444
H           -1.76873257921678        1.78614644693666        3.97987409773316
H            1.89411968510185       -1.69886153599690        1.00812981747594
H           -1.63905325321722       -0.38173425885874        1.83792303708600
H            5.46658801940521       -2.67073230711289        1.03513095168534
H            7.33452639143039       -1.13175313500746        0.68375937655652
