75
 energy: -118.544169596177 gnorm: 0.000358559864 xtb: 6.5.1 (b24c23e)
Si           0.04240079962117       -0.51010188638222       -0.34096360596630
O           -1.35365777314818       -1.36685092274584       -0.20934208740814
C           -1.66724692087119       -2.70807688807130        0.07258936022017
C           -2.99903233353614       -2.69935056025388        0.78956570244535
H           -0.90507040753891       -3.11595063975629        0.75219808281588
C           -4.20743999405075       -2.92220253471584        0.14415176205993
C           -3.00872875163850       -2.38452838986619        2.14382636297566
C           -5.40010541935275       -2.85072324985807        0.84601238733264
H           -4.23105406075944       -3.14853615641913       -0.91041875704432
C           -4.19946976906788       -2.30447881489981        2.84237486867345
H           -2.07102892429111       -2.19468849999265        2.64509030583014
C           -5.40056051502670       -2.54243888142309        2.19485810857630
H           -6.33383118077279       -3.03084238680575        0.33275913816057
H           -4.19137957130830       -2.05768768382135        3.89427750775596
H           -6.33231953013988       -2.48376529915937        2.73823275672346
C           -1.65506543628012       -3.53180800234226       -1.22511403306822
C           -0.29532118046168       -3.77333169589080       -1.65473687766994
H           -2.15631474504969       -4.48767521807832       -1.05194199547082
H           -2.17803684581671       -2.97364272057100       -2.00538990702599
C            0.84234689342413       -3.95412398868626       -1.97708295371408
H            1.83074227079225       -4.12787089124252       -2.27838873494699
Cl          -0.19779597227709       -0.22939023713010       -2.39776234818453
Cl           1.06433692604202       -1.65663918150323        1.14789804063183
O           -0.59582429517848        0.81709288052500        0.52198982480314
O            1.59573288366783        0.35315787299465       -0.68290405442368
C            0.84422959409987        2.64503126737607        0.50593979649671
C            1.95668903729790        1.86756615331921        0.99202401276350
C            3.52507856684269        0.06489121860785        0.66953265757233
C           -1.41427229624494        2.86644053935769       -0.33865719853579
C           -1.10844362011378        4.21135264833964       -0.69673968514094
C            1.06039959659834        4.02181680066301        0.33281229769542
C            0.13411915572910        4.78188208313892       -0.30766778190386
C            2.67524100713849        2.32314666154594        2.11000963653953
C            3.71549685564620        1.59139955637500        2.58826779607502
C            4.16788964924363        0.44564236647728        1.88063991177359
H            2.01682497121727        4.42759131395765        0.62066615886420
H            0.32375100160158        5.81816220020462       -0.53628928994692
H            2.32292005529014        3.20437320839013        2.62163640282087
H            4.22049213821478        1.87025550136698        3.49942666086755
N           -0.37984125306227        2.12416544811719        0.20107027804888
N            2.38737441575390        0.76083440133394        0.33396342333149
C            4.09055723837079       -0.96828220750595       -0.12078421562244
C            5.26179815789210       -0.28235413262453        2.35919383057995
H            5.71658510749738        0.01491407994221        3.29166338394199
C            5.17433389727173       -1.65035434480771        0.40787685729559
C            5.74055948241369       -1.34725143645339        1.64059554799667
H            6.57267680245265       -1.92924063576576        2.00592424033408
C           -2.73582482962540        2.39254232924916       -0.53601037454267
C           -2.03717603646192        4.99451392299849       -1.38651061047816
H           -1.76524322729544        6.00222252086797       -1.66034013867546
C           -3.27117360852460        4.47925708847963       -1.69557489071555
H           -3.99057603637185        5.06273936047565       -2.24903372514237
C           -3.60904805584451        3.21459938754064       -1.23704153828916
H           -4.60860081672104        2.86639961210052       -1.42854066976070
H            5.61666874282969       -2.45208805278061       -0.15731243579142
C           -3.28536980169360        1.12440977910565        0.08044844576793
C           -3.40142512882931        1.34017737441373        1.59578195035194
H           -3.81842833032826        0.44943481385597        2.05883974835178
H           -2.42773762361769        1.52786365435722        2.03924065063698
H           -4.05328841504897        2.18658231068911        1.80979855855238
C           -4.64108462409510        0.68326901985149       -0.46894283697352
H           -5.43962937946841        1.36486395803664       -0.18117001413126
H           -4.61205968685285        0.59163025610378       -1.55202414145222
H           -4.87545303209019       -0.29449564934258       -0.05468754650700
C            3.64804530813048       -1.27019539381019       -1.53737410541949
C            4.24309386207789       -2.54914197840666       -2.12436044219783
H            5.31483955003478       -2.45513803217131       -2.28971243176241
H            4.05352216728397       -3.40230519347645       -1.47648922609244
H            3.77775358595219       -2.73470116032720       -3.09048651071655
C            4.03034851126730       -0.08308406767109       -2.43194779779395
H            3.74303866464602       -0.29050280136977       -3.45935222640601
H            3.52084024433994        0.82374762633745       -2.12060936432833
H            5.10571615784152        0.08626225399404       -2.39415907997699
H           -2.60348242579984        0.29782175837383       -0.09346569705498
H            2.56506055612577       -1.38530241272127       -1.56422012537435
