75
 energy: -118.547227934985 gnorm: 0.000263581325 xtb: 6.5.1 (b24c23e)
Si          -0.09805416505087       -1.20564114024988        0.95955478534246
O            1.07548102181171       -2.36849670859992        0.93243314960137
C            2.43003178411926       -2.30314583387789        0.55886853684615
C            2.60950371768230       -1.66747630140689       -0.79878796464720
H            2.96952847807191       -1.70261672231708        1.30601485746632
C            1.78030515573819       -2.03023671374881       -1.85276105956415
C            3.56201786972292       -0.67642783020332       -0.99880888210505
C            1.87184113431279       -1.38217714401184       -3.07106736894324
H            1.03539533417886       -2.79665670449298       -1.70221266446363
C            3.65979632348563       -0.03485445459504       -2.22063539569740
H            4.21129672656629       -0.38665500006558       -0.18434532218538
C            2.80727116884945       -0.37800878007298       -3.25629739848749
H            1.20576844536716       -1.65928764669810       -3.87558358262968
H            4.39282800859588        0.74710742439250       -2.35800182259706
H            2.87157088815076        0.13680404388385       -4.20408398862349
C            2.99719074133803       -3.73513352292263        0.56469560544981
C            3.08492762528612       -4.24774710168797        1.91464673590324
H            3.99019236914613       -3.72641466920673        0.10623291042540
H            2.33562410955654       -4.37283539381385       -0.02568647529520
C            3.15418258216808       -4.63012525156677        3.04611890755828
H            3.20682667605224       -4.98138056118176        4.03279182005306
Cl          -1.40415478183060       -2.32514766882791       -0.21753515474735
Cl          -0.50441559007348       -1.27870738925378        2.95584476087628
O           -1.36001125441503        0.26851123123318        0.89505437478170
O            0.99621577108465       -0.07245058911145        0.35029243750645
C           -1.24762460119309        0.84745005701788       -1.32507677286729
C            0.03593292795573        1.45366260418661       -1.16892030936370
C            1.95794864062013        2.03583062179757        0.20015391707819
C           -3.32012135753433        0.07562699093312       -0.35737137036876
C           -3.85263280962159       -0.10935681603370       -1.66024773965552
C           -1.78976413809183        0.66803927567528       -2.62169120516274
C           -3.03070589918843        0.15428079774445       -2.78638832342831
C            0.47685957079864        2.37531957808135       -2.14340237656765
C            1.65075072688947        3.04352201600841       -2.00642873799130
C            2.40656270099587        2.92381633975313       -0.80743325912760
H           -1.16091688856932        0.86208781678958       -3.47387719541848
H           -3.41721756554448       -0.05776791493222       -3.77094841989887
H           -0.15445393372993        2.56806314191162       -2.99431595645100
H            1.99730133520602        3.71851770070687       -2.77298530911804
N           -1.99785458843371        0.44540271092352       -0.26274944766129
N            0.86545179006457        1.22583203327443       -0.09236275469866
C            2.62191552646985        1.99884550740900        1.44504226348552
C            3.56333105343791        3.68315076163253       -0.61119049664898
H            3.89394485369009        4.34325199613945       -1.39866511677593
C            3.76814401228533        2.76945143510288        1.58470015268201
C            4.25590470909526        3.58217648872175        0.57034578253425
H            5.15995497836056        4.15083074754682        0.72689943778235
C           -4.15982430690294       -0.11863968445246        0.77177355167683
C           -5.16350236326230       -0.56476531553508       -1.83380869197446
H           -5.53564480194574       -0.70917987367893       -2.83650627753009
C           -5.94841949330749       -0.81433784954108       -0.73919956232030
C           -5.44672556188044       -0.56816665854908        0.53527634523591
H            4.30209035180594        2.75293755661312        2.51936635753701
C           -3.75583725414167        0.25498663529135        2.18108370427804
C           -3.68732640180658        1.78531564118340        2.27670883991311
H           -3.40842924596445        2.07737512973652        3.28560656567278
H           -2.94587580779532        2.18728420632837        1.59154462963501
H           -4.65519210532156        2.22491600784735        2.03895597313969
C           -4.67952332090077       -0.28522870759502        3.27071346538183
H           -5.65253418552838        0.20254362476575        3.25914686714285
H           -4.80992640815380       -1.35983517592151        3.17156708320046
H           -4.22092861337439       -0.09294833445407        4.23764642666031
C            2.06443775139659        1.25085122363156        2.63442894183611
C            0.74604689534068        1.91322720161062        3.05506932220096
H            0.91147614273824        2.96293659945232        3.29353459794923
H            0.00042661143388        1.84485840346720        2.26858175600794
H            0.34691585662410        1.40820021925125        3.93007405785595
C            3.00156649355301        1.17516985953837        3.83836063935685
H            2.54962631524668        0.52676427442138        4.58531146980586
H            3.96553154062821        0.75092926175395        3.56499504911244
H            3.15221592632170        2.15321134440543        4.29079254769373
H           -2.76374978819290       -0.14152813555606        2.38978800754127
H            1.85554132480067        0.22264694146111        2.34166272687323
H           -6.10578726374588       -0.72900878481746        1.37088697286521
H           -6.95825347154941       -1.17672907264510       -0.85611093092930
