75
 energy: -118.550959666856 gnorm: 0.000438253393 xtb: 6.5.1 (b24c23e)
Si          -0.58853013904404       -0.18701452214965        1.04293449873588
O           -0.05980717919821        1.34344251547958        1.01234239656446
C            0.97500241887700        1.99464358656945        1.70132937438872
C            2.25121282109302        1.94571239597271        0.89845467214815
H            1.13014408110771        1.51070253412611        2.67376259839142
C            2.20433260547155        1.82601001949841       -0.48367736406520
C            3.48320003041013        2.04735464062581        1.53081143935886
C            3.37212042876768        1.80698432347151       -1.22447608416064
H            1.24322875095299        1.74417939527129       -0.96897782676756
C            4.65096063179968        2.03141677547474        0.78840109067485
H            3.52329424960110        2.13522519549331        2.60725178108623
C            4.59763954390910        1.91115765323464       -0.58998514211428
H            3.32622717274924        1.71146711219134       -2.29963598451411
H            5.60566505556376        2.10919241796850        1.28810106576953
H            5.50957354210805        1.89878723917701       -1.16829697169740
C            0.54098368970723        3.45747020339503        1.91885838534710
C           -0.63987408556183        3.51232556287505        2.75329368255283
H            1.35864854511273        4.00901229794758        2.38914110189191
H            0.32237841596918        3.90285379687015        0.94472924983877
C           -1.62129977266341        3.50716174432770        3.43733489863270
H           -2.48073185492400        3.51921257875995        4.03803201425759
Cl           0.32447848190397       -0.77274204369981        2.90743683241821
Cl          -2.46755364331510       -0.75211819912526        1.77912307022917
O           -1.31302848204069        0.26061234430833       -0.54783493022678
O            0.29422486258279       -1.46516858957639        0.31866778821360
C           -1.65604958170127       -1.64294778886997       -1.74562918383789
C           -0.23202843104829       -1.71372982534594       -1.95876814220969
C            2.07334262020138       -1.55585545204696       -1.24327826184869
C           -3.55461996664613       -0.35374022841457       -1.00308023869287
C           -4.40497938633207       -1.39103529833355       -1.48059196220779
C           -2.49969078467520       -2.61136436966565       -2.31440059221893
C           -3.84316544074584       -2.52230998757481       -2.13111288848923
C            0.18661277946987       -1.89437542380745       -3.28820984099873
C            1.48914612390028       -1.70647831070650       -3.62780979874876
C            2.46103126722293       -1.48995724078651       -2.61305204963891
H           -2.05144854293955       -3.45473941859982       -2.81460759308648
H           -4.50499147469837       -3.29796979480758       -2.48241332227298
H           -0.56848665228832       -2.06230626063001       -4.03910661405521
H            1.80650281101373       -1.72728623785112       -4.65781373556395
N           -2.20305725440064       -0.57705389754345       -1.11017115182178
N            0.71097410856957       -1.56036802173650       -0.98383865210759
C            3.08886519306617       -1.63689935690762       -0.26191728147146
C            3.79721346600961       -1.28815257084104       -2.96547441758706
H            4.05250210856380       -1.21926690454803       -4.01195069900363
C            4.40010372645562       -1.42285276291114       -0.67049186206765
C            4.76060241495149       -1.20106345614761       -1.98939605630582
H            5.79298705451738       -1.02260245745168       -2.24744046984183
C           -4.13029124436465        0.83348900096388       -0.48183729015173
C           -5.79254240514246       -1.28931057399336       -1.33633704295174
H           -6.41266207390563       -2.09932169460872       -1.68846103159693
C           -6.34024890621527       -0.17003728128431       -0.76466947075035
H           -7.40847002184892       -0.08284963613395       -0.63870105621174
C           -5.51069536771701        0.87544902499790       -0.37604099576427
H           -5.97533997714612        1.76137079613489        0.02100466948708
H            5.17863536279369       -1.45307420390874        0.07232008009100
C           -3.34194497882296        2.08258291449067       -0.14837584090566
C           -2.97796651217147        2.78381639711385       -1.46356038514482
H           -2.43373171402969        3.70084071307187       -1.25291991396688
H           -2.34827659632390        2.14594372295391       -2.07854145704401
H           -3.87767157251164        3.03258020088095       -2.02496996564615
C           -4.06934722290046        3.05500636379476        0.77894638716331
H           -4.88239897680154        3.57308210409483        0.27382265234118
H           -4.45723566270571        2.53277332752306        1.64973727052701
H           -3.35853354531254        3.80214677813840        1.12494057647600
C            2.88204588607759       -2.13060420247736        1.15044340490535
C            3.87918158615248       -1.57145532893260        2.16533800657491
H            4.85062202001995       -2.05727659891840        2.09710155821667
H            4.00209009880465       -0.49993519024727        2.02971474485165
H            3.48727918443640       -1.74198715485430        3.16463456814482
C            2.96434933647428       -3.66327049747115        1.11312680235700
H            2.82159315515502       -4.05896247028221        2.11505127226822
H            2.19126130783472       -4.07534197254639        0.46788385671428
H            3.93508779905164       -3.98861994581364        0.74119129794283
H           -2.41812020983547        1.81483420233314        0.35584029181316
H            1.89509692202419       -1.86666670844793        1.50805418752012
