75
 energy: -118.547648075075 gnorm: 0.000480775965 xtb: 6.5.1 (b24c23e)
Si           0.12528144850221       -1.21643557006252        1.06745481819125
O            1.47286711847812       -2.17037987349529        1.13561381452910
C            2.83024176538118       -1.84664874282120        0.97013738930243
C            3.08837543002142       -1.25242058845089       -0.39371210828173
H            3.12117846182282       -1.11723527499967        1.73998506460132
C            2.47132340692494       -1.79650684456428       -1.51344068204770
C            3.89574291757503       -0.13278630104143       -0.54296774821831
C            2.62696478675545       -1.20675363158665       -2.75415909604920
H            1.83566425654387       -2.66154175783705       -1.39759555189806
C            4.05842220266860        0.45207080810793       -1.78646544183308
H            4.37887098539078        0.29778359187574        0.32289650176092
C            3.41625349340686       -0.07702816580942       -2.89292726482134
H            2.12555026664090       -1.62711489800493       -3.61423643277204
H            4.67485134740274        1.33381555369823       -1.88729644063327
H            3.52873996183952        0.39101568086077       -3.86020111492175
C            3.65588559478622       -3.13297407415475        1.16215226797916
C            3.64976475761118       -3.54635142345388        2.54850398048376
H            4.68339671773317       -2.94921484107760        0.83493849945355
H            3.21813557812417       -3.91982297643094        0.54355555251853
C            3.63150322286083       -3.84562498516273        3.70673769784985
H            3.61323841858977       -4.12670571431059        4.71704656119791
Cl          -0.92314046590296       -2.67791670206426        0.02209471448826
Cl          -0.28567853924512       -1.11326698241546        3.06633357307795
O           -1.37248731108708       -0.01783445063117        0.83917926404629
O            1.02087695615363        0.02903984204382        0.35537087703145
C           -1.30929642392923        0.35729647170453       -1.42674570427904
C           -0.15867620378490        1.19716938769576       -1.32163799475365
C            1.59330328369565        2.25036682147504       -0.00793092363460
C           -3.22747455878691       -0.69496061118748       -0.40400942846061
C           -3.68439385327089       -1.09686700210540       -1.68642863899214
C           -1.78051324916982       -0.03618684117257       -2.70388555592210
C           -2.90153456841101       -0.78387941516352       -2.82740590695744
C            0.13875564421947        2.08029067256333       -2.38307750343101
C            1.17865307073445        2.95031961130757       -2.31224683579729
C            1.91420471289641        3.08807534161816       -1.10299814972387
H           -1.18070445569679        0.19301113774189       -3.56810288671703
H           -3.22004856114430       -1.15025492512861       -3.79073073903312
H           -0.49710741487522        2.07538721435696       -3.25216029395658
H            1.42237155377343        3.59200202129645       -3.14421882435585
N           -2.00079609214849       -0.07471105484528       -0.33652190525799
N            0.67011719207874        1.23117020320712       -0.22101012529011
C            2.20981316980687        2.46914331042647        1.24225403709702
C            2.92116381254765        4.04955955160352       -0.98094260231581
H            3.15880683701342        4.66722277608416       -1.83367134562389
C            3.20837440954395        3.43106073046346        1.30676533199598
C            3.58699696678964        4.19521188482794        0.21113866692105
H            4.38039846385312        4.92031154315453        0.31167758888267
C           -4.04296941159346       -0.94008352678517        0.73302237814364
C           -4.87907421314494       -1.81083922085189       -1.82379673381660
H           -5.19357154555704       -2.11390308243651       -2.81067303485594
C           -5.62485002931176       -2.11001022969039       -0.71445090142588
C           -5.21098037618571       -1.65421362775294        0.53357711712351
H            3.70790544603577        3.60916752406625        2.24370044528825
C           -3.75750651279049       -0.35804465368944        2.09999786051259
C           -3.98089247603799        1.15913793986466        2.03602730328732
H           -3.78928061599232        1.59945196169787        3.01084967617788
H           -3.31039509566731        1.62348400989325        1.31802450004744
H           -5.00748926806599        1.38020444006529        1.74670980891012
C           -4.59512655960610       -0.95106224049492        3.23089793440581
H           -5.64292348198861       -0.66626902521696        3.15447297996144
H           -4.51281446417818       -2.03485637314323        3.24804524135158
H           -4.21445746659940       -0.57278808899131        4.17660896349801
C            1.73674121496804        1.78043566079628        2.50127601759469
C            0.30582019269205        2.24346429366061        2.80478034633111
H            0.27637197022229        3.32615259634953        2.91849945323993
H           -0.37961239198904        1.95447503677252        2.01376989982987
H           -0.04000876017638        1.77947828893982        3.72400622755618
C            2.61608050193066        2.01606441359090        3.72775674771873
H            2.24283440499423        1.39971426415286        4.54224753256991
H            3.64875766406198        1.73100928265088        3.53737308784154
H            2.58174889681529        3.05469468446620        4.05034672901467
H           -2.71524377187712       -0.53561563607649        2.35856939912331
H            1.72145435250760        0.70438096959383        2.33257912475338
H           -5.84567985610212       -1.86424226157255        1.37703648018062
H           -6.54145186213740       -2.67300390805417       -0.80172553983436
