75
 energy: -118.558613606788 gnorm: 0.000988406511 xtb: 6.5.1 (b24c23e)
Si          -0.03202787542770        1.19419388682674        0.60663722038795
O            1.52124965978823        1.04685424495642        0.14157733738943
C            2.54725793076914        1.96202579113338       -0.17034918817158
C            2.93751270085404        1.68360114451043       -1.60521508282485
H            2.14764123081936        2.98273527275035       -0.09630059558421
C            4.14875513530087        1.12272114562470       -1.98227430356657
C            1.98300244874821        1.94429616404979       -2.58383722571401
C            4.40328621186006        0.83992254165085       -3.31459112671487
H            4.90644142725199        0.90292582535062       -1.24639675988544
C            2.23341226678148        1.65196247938074       -3.91090536761960
H            1.03984275755677        2.38233242891638       -2.29091476820355
C            3.44854259747463        1.09940675060204       -4.28100941548799
H            5.35506962890799        0.41241029994034       -3.59621822831459
H            1.48311283922779        1.86265162570951       -4.65912014750428
H            3.65066434332723        0.87565217134326       -5.31844397104190
C            3.67510142265018        1.79348900427372        0.85547313011267
C            3.18513356829634        2.15255411622515        2.17061721022175
H            4.51185599040521        2.44099460908704        0.58256184902957
H            4.00257582899306        0.74952401074646        0.86965507810823
C            2.71803206307295        2.44148185838310        3.23356982467414
H            2.32139073818137        2.69206124243879        4.17147624865081
Cl          -0.45012265716150        1.11319222261189        2.60375804539208
Cl          -0.20449469260390        3.31991197386246        0.41563597753069
O           -1.27204703725065        1.17917913855024       -0.55386067097764
O           -0.11550007542565       -0.66121475614323        0.59143546663461
C           -1.12697015890166       -0.73839495612145       -1.94510959844850
C            0.21315903239498       -1.12343052575562       -1.63549061978700
C            1.90699187866945       -1.67660401168580       -0.00730535360993
C           -3.26178326048626        0.20118218741848       -1.30189827590396
C           -3.83386284755462       -0.23910415800779       -2.52277766753331
C           -1.72786138100007       -1.24246719550372       -3.12109089002106
C           -3.01413264607111       -0.94818247120729       -3.44362306263512
C            1.12284545885337       -1.41847055022890       -2.67932541173606
C            2.40812507607342       -1.74087240027360       -2.40464658420673
C            2.83952117359006       -1.88210980772986       -1.05966703995427
H           -1.14930152212935       -1.89372704356104       -3.75468261437570
H           -3.44936108050700       -1.29844907481780       -4.36638069682531
H            0.80455062588886       -1.28013153824921       -3.69832770501613
H            3.12588436699239       -1.87934484491929       -3.19733026663911
N           -1.88593697841188        0.08550081079207       -1.14871552846029
N            0.65235778484474       -1.22768437231887       -0.35267188302997
C            2.30957934271753       -1.93223346255106        1.32593560067186
C            4.17158692890117       -2.19752852433469       -0.77605472193018
H            4.85939359591106       -2.32729691209984       -1.59759754492169
C            3.64504791578986       -2.22989447193936        1.54705893228624
C            4.58239026399656       -2.33243994989837        0.52656265347059
H            5.61349974091343       -2.54990150071084        0.76056018261967
C           -4.09471177533658        0.73337360882967       -0.30222632400787
C           -5.18617323900986       -0.00389423811294       -2.78554267754291
H           -5.59959556551346       -0.33693178866596       -3.72539887846554
C           -5.96583834243489        0.64290062791053       -1.85561438680942
C           -5.42405006036147        0.97406126339422       -0.62238368588856
H            3.97184790406004       -2.40448959115240        2.55949724814453
C           -3.63794327017162        0.97135715323121        1.11470280096356
C           -3.56944360573702        2.46631083299971        1.42740022322909
H           -3.17781884372314        2.61242621150676        2.43027210300265
H           -2.90936636894279        2.97168665675558        0.72870911501813
H           -4.55645968099664        2.91939667315968        1.36309775039349
C           -4.55757888148381        0.25601166326027        2.10964839565747
H           -5.53888035925697        0.72039403110947        2.15953451184874
H           -4.68187577462373       -0.78965866167863        1.83493613241218
H           -4.10906391024928        0.30229575832105        3.09844153779133
C            1.38290254544718       -2.03013999366549        2.51810287534935
C            1.87755770668917       -1.20069668733791        3.70482025928298
H            2.76692548613791       -1.63071445415841        4.15994411780067
H            2.10080575212305       -0.18486128261124        3.38977922494202
H            1.09762112804890       -1.15524809676058        4.46016702064747
C            1.24258671713815       -3.50692294193519        2.90756830617685
H            0.55714365807275       -3.59846307703212        3.74633721323945
H            0.84874370151281       -4.08862127302563        2.07602222615939
H            2.20161817887921       -3.93113512961579        3.19771805544288
H           -2.64939755445015        0.53712257562286        1.24659683381228
H            0.39436427899181       -1.66329819597442        2.25612168691556
H           -6.06343906201486        1.41888852027059        0.12313735356754
H           -7.00253052575243        0.85786541637565       -2.06508947926963
