75
 energy: -118.458093990571 gnorm: 0.000676741040 xtb: 6.5.1 (b24c23e)
Si           0.21895758350724       -0.67503326719222       -0.68286788070308
O           -1.39542393246577       -1.57006608778701       -0.74112074575681
C           -2.09868899069503       -1.90488967945873        0.24139664267197
C           -3.40150840134740       -2.47193245027535        0.10307665071360
H           -1.68037123372495       -1.80868163773302        1.24533319187258
C           -3.98961161629342       -2.61907066518123       -1.16551523787168
C           -4.11514451002334       -2.88929797119429        1.23963119652255
C           -5.24760290403745       -3.16580697303781       -1.28555815719680
H           -3.43099691269113       -2.29238472535939       -2.02888623618095
C           -5.37242764630262       -3.43576332563132        1.10517361690547
H           -3.66330697578403       -2.77844290349618        2.21450978393541
C           -5.94322995410786       -3.57516406560062       -0.15441055583100
H           -5.69642014573503       -3.27791013578590       -2.26116806023257
H           -5.91830507873229       -3.75720521220163        1.98009691204607
H           -6.92908341101833       -4.00413688153648       -0.25268751179866
C            0.40995324961798       -1.09347714000096        3.29460729181310
C            0.65185806164263       -1.43621315537508        2.06506381768298
H            1.09571055199491       -0.48194844683757        3.85974361530890
H           -0.47568058095208       -1.42214054783879        3.81532387569476
C            0.86941744999082       -1.71606701806271        0.82276762820287
H            1.41392855830513       -2.62070085014646        0.58351831902938
Cl          -0.63142008146588        0.58880010442171       -2.22777971617122
Cl           0.90559545052975       -2.14454349137610       -2.10207059917544
O           -0.50417676469643        0.54077635425633        0.59573586618734
O            1.70654508937021        0.38730637234304       -0.81601697247778
C            0.87922700386339        2.35385945796601        0.73519374048306
C            1.97512268013703        1.48717528464620        1.15363049015480
C            3.51551665094873       -0.24299943390412        0.56615974142579
C           -1.38024959703978        2.65860079636274        0.03535337304762
C           -1.05484736492935        3.99910972364125       -0.32115403285698
C            1.14506729433109        3.71849246119707        0.59775484783439
C            0.21858666675554        4.52361494934051        0.00397084611625
C            2.58994096330479        1.66381009077241        2.39414837429942
C            3.53858526741064        0.76900064220766        2.80088379394199
C            4.00807721979605       -0.21970853841179        1.90121746721456
H            2.12276308006727        4.08078709970666        0.87363850263740
H            0.43646345295119        5.55437518021558       -0.22452116015398
H            2.22887888227549        2.44643900305341        3.04260943323520
H            3.94973982760136        0.80551950022689        3.79736692476813
N           -0.34440475124377        1.85397050742578        0.45937361840791
N            2.43186641507440        0.55719722522332        0.29320640577921
C            4.16088197184963       -1.04421706223721       -0.40721802909297
C            4.98092218366948       -1.14723809957903        2.29572431915869
H            5.32699037609885       -1.13700498559193        3.31782999753766
C            5.10424816702753       -1.95072393935494        0.04720790156678
C            5.48092439131794       -2.04214066136446        1.38386323460112
H            6.20722805393701       -2.78167128985407        1.68501008287215
C           -2.73199433909783        2.23792710188116       -0.04778584903789
C           -2.00722554270884        4.80980950528093       -0.95181385378090
H           -1.72720484166989        5.81159382374958       -1.23863879203120
C           -3.26591651289875        4.32474773746648       -1.19234132544035
H           -3.99793234743195        4.92488809437991       -1.71043047200317
C           -3.62243609069834        3.07383425085677       -0.70111320291677
H           -4.64400247279065        2.76075154016722       -0.82700467381113
H            5.58471892271116       -2.60359101917168       -0.66109195757589
C           -3.24350411036694        1.00431089619491        0.65585224563876
C           -3.07194727385154        1.19009906339126        2.17000451614977
H           -3.51003638469026        0.34463481492383        2.69541352058941
H           -2.02172948905566        1.24895948249141        2.44169133921703
H           -3.57231457428520        2.09942978976948        2.49948914192847
C           -4.69826926886100        0.65864957083675        0.34772510883756
H           -5.37613306681910        1.42540018706748        0.71722515916081
H           -4.84880350266731        0.52224644777544       -0.72023154554351
H           -4.95364274037505       -0.27713182784157        0.84080071225710
C            3.98052669808313       -0.81498306551940       -1.88852007357972
C            4.51337893867244       -1.93974332426957       -2.77049583194769
H            5.59897942901220       -2.01092757396164       -2.73229485807513
H            4.06828045604276       -2.88835230229388       -2.48401993687992
H            4.22598808896107       -1.73865483291474       -3.79914240295930
C            4.67904516003970        0.50701792542031       -2.23804960992119
H            4.58806841501670        0.69728832910067       -3.30401408553337
H            4.22665932613106        1.34053311300031       -1.70532344636271
H            5.73677551567513        0.46148306307033       -1.98025796798780
H           -2.63915430657025        0.14595757312340        0.35920495268392
H            2.92314422439275       -0.71018047558585       -2.11845741924663
