75
 energy: -118.460312809654 gnorm: 0.000605120709 xtb: 6.5.1 (b24c23e)
Si          -0.52412033817862        0.50616275150656        1.14227496312166
O            0.92457586949690        1.04471405638469       -0.00824215399317
C            2.13720544461891        1.18829568430192        0.27436747496133
C            3.11135689361565        1.57793017007734       -0.69484380477297
H            2.46913716675714        1.03800092472313        1.30197077887218
C            2.73838758390176        1.83936939712956       -2.02510376100802
C            4.46537285133468        1.67164221501795       -0.33632421572426
C            3.69163003461260        2.17077710299952       -2.95967286856215
H            1.69282622091891        1.77813812299442       -2.28591151656244
C            5.41038673134217        2.00793386983580       -1.28186137279304
H            4.75342165422524        1.48404440098041        0.68693787776362
C            5.03075528162351        2.25103335351213       -2.59443923548154
H            3.40106449941818        2.37198545486423       -3.98025769683015
H            6.45091624498490        2.08123912699090       -1.00183732187573
H            5.77588713155142        2.51006420343388       -3.33162444446320
C            1.91494350340278        2.36687320067861        3.71115467393871
C            1.17908348571129        1.38740432160017        3.28347404728190
H            2.98324749530540        2.40105948602605        3.56173422866547
H            1.48068142105958        3.19274081231501        4.24954479018483
C            0.42325211209625        0.44932974555173        2.81660703132448
H            0.20456936989755       -0.40293724582238        3.44522420000501
Cl          -2.31369833702130       -0.34059689297601        2.07348344811906
Cl          -0.93384884669640        2.60416207202060        1.26892000561440
O           -1.43809680747945        0.53299253775225       -0.46593611534363
O            0.05526452605320       -1.21882747298491        0.70794620831145
C           -1.58709986238320       -1.55569184729445       -1.34339504799662
C           -0.14332059842904       -1.52412214874121       -1.54391361148031
C            2.04401929804426       -1.44875965386533       -0.57876937651762
C           -3.57674807178863       -0.44228045180384       -0.66047427386136
C           -4.28006147964790       -1.67137056908878       -0.81935763811827
C           -2.29994427611672       -2.70525216423691       -1.70062304602210
C           -3.61784791188596       -2.79404400261570       -1.36564324559986
C            0.37843502101957       -1.64963001108195       -2.82688774757487
C            1.72671869151558       -1.51429450690346       -3.01758302455341
C            2.58505860546598       -1.41123930085834       -1.89829131006140
H           -1.76230186663041       -3.52922790506013       -2.14206599522876
H           -4.17143049954214       -3.70762234997021       -1.51500456362900
H           -0.30399876108724       -1.77138230777991       -3.65295655864024
H            2.15355606848604       -1.50336376954033       -4.00709605640688
N           -2.21173544439712       -0.48490206281449       -0.83243876924478
N            0.67101311949901       -1.38490929484754       -0.47118719467486
C            2.92835593004793       -1.54682265361058        0.52332248727314
C            3.96996887692684       -1.31724938363272       -2.08542045538388
H            4.35318962825566       -1.26506174262401       -3.09238023320308
C            4.29225622637565       -1.45868703724168        0.27162454481910
C            4.81450283271718       -1.30038431038960       -1.00309840703277
H            5.88126750147343       -1.21768764202109       -1.14249039479747
C           -4.30595946602127        0.73932759832178       -0.36308970585459
C           -5.63638904680383       -1.75333645963742       -0.46987217983143
H           -6.14178202342669       -2.70142421929278       -0.57085872168999
C           -6.28969111878747       -0.64073531616595       -0.01514153879502
C           -5.63464577530891        0.58927243588911       -0.01222331993026
H            4.97722985830237       -1.52846491634043        1.09936409293237
C           -3.72946041575389        2.11789737236635       -0.55538901799177
C           -3.48407123427834        2.33028515451058       -2.05628365390710
H           -3.09279920467721        3.33058479775643       -2.22028830290632
H           -2.75939335321870        1.61823902217191       -2.44261654992577
H           -4.41299683052479        2.22186922201269       -2.61590644334764
C           -4.59637749662291        3.24983576000950       -0.01139683601422
H           -5.52308232277033        3.36168389768708       -0.57232367101144
H           -4.81980057742319        3.09006598587050        1.03987952950953
H           -4.03752128187825        4.17870898551572       -0.09186032139943
C            2.48338939630809       -1.95183035343481        1.91034614007618
C            3.40491494961099       -1.47519794539080        3.03236102850689
H            4.33600095025397       -2.03709027047812        3.06193376854906
H            3.62977150539164       -0.41637835753478        2.92993055223299
H            2.90313228713661       -1.61644638441096        3.98653943285477
C            2.37349088587779       -3.48270860139646        1.93046521047456
H            2.07450739438009       -3.81753572458182        2.92043043587997
H            1.62833512928151       -3.82283053697699        1.21488349379563
H            3.32946636351321       -3.94018910370708        1.67996699748727
H           -2.77312139616739        2.19123211365352       -0.04291713312275
H            1.49477904717854       -1.54863704619228        2.10779432660539
H           -6.20396112298774        1.46027492883123        0.26231933289070
H           -7.32340032105295       -0.69588832194473        0.29014475111612
