75
 energy: -118.461015850558 gnorm: 0.000414001012 xtb: 6.5.1 (b24c23e)
Si           0.23642900644264       -0.32034507029225       -0.43524719063490
O           -2.17832985757419       -1.26732141777928       -0.21277076497442
C           -2.30787218355965       -2.46890563415669       -0.17480789540430
C           -3.58201564851439       -3.16952061172269       -0.32854247405530
H           -1.43870390256675       -3.12415051780170       -0.00677128949914
C           -4.74782386689122       -2.45315242614894       -0.60571202075690
C           -3.64163317414390       -4.55649238309904       -0.19164936738123
C           -5.95304694636876       -3.11321730077119       -0.73705192162335
H           -4.67719052199714       -1.38227445644156       -0.71812286035032
C           -4.85098835301511       -5.21159364756421       -0.32253996313214
H           -2.73684875009757       -5.10854339861344        0.01630455336486
C           -6.00553489548590       -4.49179683510983       -0.59310565292472
H           -6.85415794077574       -2.55832988055130       -0.95200694128032
H           -4.89877312033280       -6.28519624649689       -0.21634705951193
H           -6.94882888133086       -5.00802603855473       -0.69492323082938
C           -1.02185362023549       -1.54862353836313        3.16213166129690
C           -0.23019496045343       -1.51293614582483        2.13670993523100
H           -1.87634633802220       -2.20613325516804        3.19504739219536
H           -0.85344818888101       -0.93158068183527        4.02937247381614
C            0.52060739513943       -1.45484878705279        1.08637352360201
H            1.36906187386682       -2.12411164545116        1.00833565282383
Cl          -0.81841099405995        0.70900277365927       -1.93951302668414
Cl           0.41770308924987       -2.07122057100126       -1.75398880660789
O           -0.12658893110612        0.97215529558963        0.75935005164866
O            1.80755697577742        0.30174480800876       -0.81025000362093
C            1.21660967332405        2.75773055630450        0.30459893008553
C            2.34737075038989        1.95744490329336        0.72093166480179
C            3.69033885084626       -0.03995214926936        0.59337050137987
C           -1.16405289361413        3.01050576202222        0.09842721456987
C           -0.94513108991484        4.28730878279200       -0.49190677722482
C            1.42377718811946        4.07959487134125       -0.11022171176797
C            0.37251008239840        4.80963315747863       -0.57351757321808
C            3.17557307078792        2.46971569424894        1.72713315109697
C            4.11746699418538        1.67197228317496        2.30384045989064
C            4.36978921591773        0.37820642356773        1.77227546469802
H            2.43428418282839        4.45485114431943       -0.14278059597395
H            0.51788033511665        5.79040628270490       -0.99740334505315
H            2.96820290944791        3.45913438274204        2.10271387017589
H            4.68566677294591        2.00468467042519        3.15728007692407
N           -0.04529012512749        2.26892034175232        0.39444625626973
N            2.62850186642861        0.73975276032373        0.18083324580261
C            4.14781911643230       -1.19085026720889       -0.09240104929597
C            5.32212011956389       -0.45465520380458        2.36581598459795
H            5.80558193333504       -0.12796194743904        3.27360774116984
C            5.08568730074195       -1.98603971159885        0.55380768066311
C            5.63522826800085       -1.66050054071365        1.78573165308470
H            6.34602975277728       -2.32606946084436        2.25110824250568
C           -2.48902939220022        2.59387868652553        0.37748940130327
C           -2.02892974188812        5.04465542975271       -0.94921845653801
H           -1.83651575378682        5.99761855334784       -1.41779167351665
C           -3.30753286608620        4.57541256852928       -0.78932692047004
H           -4.15073562679673        5.14063113459261       -1.15601007093771
C           -3.51955070242311        3.38736229947033       -0.09938053077745
H           -4.53802696224244        3.08744762177896        0.07718854507657
H            5.42145857652947       -2.88942485249549        0.07486202224583
C           -2.80516365094096        1.41877068066447        1.27384623282828
C           -2.39798888201235        1.78717243584520        2.70680110943767
H           -2.68867202450656        0.99054283961684        3.38636899154248
H           -1.32259102138460        1.92072614991631        2.78286976191155
H           -2.89020591486122        2.70828771838585        3.01759327685338
C           -4.27110337140802        0.99114674624266        1.25471375739628
H           -4.91453454532520        1.72645866214758        1.73505150925752
H           -4.60985693269762        0.82643085759074        0.23536236774252
H           -4.36878349763528        0.05396894070859        1.79862953924316
C            3.79190823309913       -1.48519315896966       -1.53149497128287
C            4.21949494702278       -2.86555927082875       -2.02434385844334
H            5.30235366831527       -2.95888948492834       -2.08733047234017
H            3.82107067391014       -3.64813197106064       -1.38355205399019
H            3.81018939797326       -3.01628576299280       -3.02008183940167
C            4.44459096452546       -0.40226050000596       -2.40238312693580
H            4.23450289608407       -0.59917763320881       -3.45024782030390
H            4.05448185943140        0.58268729084790       -2.15909811832134
H            5.52457668441035       -0.39567271341828       -2.25719523774395
H           -2.22050160393503        0.55615203996745        0.96215309862704
H            2.71587004881750       -1.42835043108307       -1.67307632235157
