75
 energy: -118.549232330962 gnorm: 0.000630190892 xtb: 6.5.1 (b24c23e)
Si          -0.37924690031692        0.01658553468944        1.33348293079807
O           -0.07938287111892        1.61355748209718        1.28753105998219
C           -0.12134096038934        2.54317462211098        0.22759958706491
C            1.09498600601944        2.38785691088187       -0.64807870118175
H           -1.02410724448216        2.38240039240460       -0.36596192813253
C            2.35392442065844        2.30745981189228       -0.06524071802127
C            0.98094179299732        2.33904379970282       -2.02974753706735
C            3.48449724172284        2.22161484361811       -0.85569443745412
H            2.43616333404107        2.30729030702393        1.01131853747990
C            2.11306852300995        2.24120956244804       -2.82040828127451
H            0.00260767046112        2.38507840945958       -2.48703698249405
C            3.36649824275359        2.19705495888521       -2.23531666810577
H            4.46028651043326        2.17472378825235       -0.39622337856897
H            2.01566157043687        2.20713583565959       -3.89591278708671
H            4.25058549587897        2.13952537869257       -2.85247662320146
C           -0.15389383989499        3.95559750755533        0.83937114428017
C           -1.38816177070584        4.19608064399231        1.55452887423898
H           -0.03976005240835        4.69105502843582        0.03784836158753
H            0.68313320535521        4.05237024098114        1.53446297286200
C           -2.41027256439249        4.37958298328278        2.14879050181491
H           -3.29246444863094        4.55306829766154        2.68928918846193
Cl           0.49700764260356       -0.02604224179232        3.26040816837062
Cl          -2.05199848384561       -1.05411206174142        2.03471585182822
O           -1.16799654500886        0.12559404838475       -0.31597166753465
O            0.79447941580604       -1.08831856445095        0.76046075027815
C           -0.86565690382571       -1.83612239879706       -1.42680702203814
C            0.54216831260510       -1.53761775022650       -1.53522925042402
C            2.72473091757442       -1.06676478059103       -0.61217103902674
C           -3.09857429967583       -1.17337727646547       -0.80950067524922
C           -3.56315805806201       -2.44026485065605       -1.26499035574801
C           -1.34754135038380       -3.01819618977631       -2.01187127785485
C           -2.65889914306401       -3.34787553812242       -1.87768511195785
C            1.09908727828464       -1.64033964778861       -2.82045440630948
C            2.39561013689214       -1.29933529779696       -3.03968334344141
C            3.24360211584753       -1.01352093016780       -1.93678075728773
H           -0.64002154337822       -3.68825215063051       -2.47315759055346
H           -3.03458096103244       -4.29463229485293       -2.23154051543820
H            0.44395566275537       -1.90334489002787       -3.63541679647546
H            2.80738030237646       -1.27352706150049       -4.03536662364448
N           -1.73841448261833       -0.96537598753232       -0.86323906942783
N            1.34906605487264       -1.20027753273039       -0.48750416340493
C            3.63372970417362       -1.02170010504910        0.47357723569508
C            4.59727616546893       -0.75318866209301       -2.16366717166652
H            4.95270307839787       -0.71046444740438       -3.18166130668876
C            4.96559300956611       -0.74911435432297        0.18542028582794
C            5.45008335090402       -0.57886679057103       -1.10225544182056
H            6.49458907650794       -0.35946783002372       -1.26277630394704
C           -4.04408048759737       -0.21835597935746       -0.35719169162796
C           -4.91233177931977       -2.78711967978756       -1.13972165635730
H           -5.22993414880963       -3.76290948693080       -1.47375333246433
C           -5.80358989124160       -1.89283281445405       -0.60549782373406
C           -5.36512802688714       -0.62163316651498       -0.25591792376658
H            5.66787470578425       -0.68728474062659        0.99833954126134
C           -3.70872073287820        1.23474660230230       -0.10042559112107
C           -3.51044720724210        1.92150292003806       -1.45899432177298
H           -3.28534817639738        2.97595235325604       -1.31330256477173
H           -2.69362197472259        1.46375814330663       -2.01308697271547
H           -4.41759456824319        1.83966369903967       -2.05618280667461
C           -4.75312990151611        1.99744944469294        0.71099948609443
H           -5.66952635357677        2.16038292792443        0.14738701775139
H           -4.98058847368848        1.47112723760969        1.63451248189776
H           -4.33935385981336        2.97032503834133        0.96610416525267
C            3.26970756492608       -1.40290589696034        1.88880622393957
C            4.32289621239675       -1.06198235326741        2.94134269135869
H            5.21423321230060       -1.67976956210929        2.84630751415215
H            4.60020999115505       -0.01188769902626        2.89294005818807
H            3.89011899094314       -1.24425501527729        3.92156740476562
C            2.99181454211032       -2.91239624660268        1.91975983124995
H            2.72733915408529       -3.21048611596660        2.93022391520751
H            2.16470741255085       -3.17313043849224        1.26532108101289
H            3.87436376789689       -3.46939979731544        1.60650809107506
H           -2.78316991806660        1.29846774747643        0.46628277956478
H            2.36340809183956       -0.88875116201717        2.19460700494822
H           -6.09759766690131        0.07920603363584        0.10500086690475
H           -6.84329129425146       -2.15502674592082       -0.48514098766489
