75
 energy: -118.549222823694 gnorm: 0.000649214573 xtb: 6.5.1 (b24c23e)
Si          -0.52011833843189       -0.49296380255273        1.25304561654491
O            0.08378842505019        0.89561285309529        1.84325710008067
C            0.26289458781098        2.16486164379110        1.25515086420291
C            1.48951821611371        2.16705139335318        0.38029517152563
H           -0.61468610714340        2.41882658451748        0.65668967240464
C            2.67796297087854        1.63109413481725        0.86103690685854
C            1.45695205536536        2.71532320783896       -0.89373495674184
C            3.82676559411477        1.68260017073990        0.09407361174648
H            2.69073391603086        1.17076900534223        1.83764995403929
C            2.60510285652443        2.75563417781672       -1.66590225074248
H            0.53057387243597        3.11837797988729       -1.27817646598312
C            3.79439398050447        2.25317070955375       -1.16732335988553
H            4.75020033139278        1.27832523425460        0.48049986726032
H            2.57184249986799        3.18811841323134       -2.65545672653817
H            4.69444362296389        2.30251751347205       -1.76173631962862
C            0.42221810567361        3.19280451611486        2.39025137042745
C           -0.79471874535528        3.31428880922861        3.16295286175129
H            0.68635993651570        4.16148195212058        1.95649928280085
H            1.22992241711934        2.86367819065627        3.04775594231496
C           -1.80629727751250        3.39906820390981        3.79614395359181
H           -2.67936777289616        3.47076651672292        4.37313872492685
Cl           0.20881414382452       -1.46810979802279        2.98497957921112
Cl          -2.40543711608271       -1.40035997907693        1.49301960109579
O           -1.16520480399198        0.41318267478598       -0.19918520956216
O            0.46232582851873       -1.48818088723861        0.26204273972794
C           -1.13890614986062       -0.95158995510914       -2.01903513905141
C            0.30356037516027       -0.89905994615710       -2.00821952467787
C            2.46250880996577       -1.25382148273764       -0.98563068669708
C           -3.25627028217836       -0.18905217682463       -1.15991067294429
C           -3.90483432223236       -1.06227556566058       -2.07903085370129
C           -1.78050616546043       -1.68619876564528       -3.02835308849856
C           -3.13524117985367       -1.79777397772466       -3.01907055183856
C            0.92364474667771       -0.55914554205785       -3.22095940784197
C            2.27086463257732       -0.39172418211320       -3.28197706264049
C            3.07475987891120       -0.74524005207949       -2.16579247994957
H           -1.17260067441723       -2.22913173528658       -3.73409334256944
H           -3.64620445620848       -2.43757161934369       -3.72068496966350
H            0.29270014398186       -0.34123811654227       -4.06772080660747
H            2.74981141957542       -0.02657815365738       -4.17576068657880
N           -1.88083852178932       -0.23683400420869       -1.13802817603068
N            1.07888789609103       -1.17811112016402       -0.92097213142428
C            3.28594000161734       -1.83311444950771        0.01087332478822
C            4.46553009553362       -0.65825726287190       -2.26645225167094
H            4.89495269176989       -0.25645500949054       -3.17115862592298
C            4.66144066480155       -1.70656569431304       -0.14039422728807
C            5.25711325366404       -1.09928760819829       -1.23529661760158
H            6.33215399158565       -1.02157484911394       -1.29174864305147
C           -4.04571093917283        0.67249080279253       -0.35680498112797
C           -5.29907026291079       -1.17453392601310       -2.08391498056383
H           -5.76162765720535       -1.86166784345279       -2.77565290383364
C           -6.05105609207516       -0.41578070625834       -1.22449931648796
C           -5.42040826613601        0.51306866831433       -0.40558987158034
H            5.30514545305144       -2.11893326223898        0.61690037753622
C           -3.47215746133060        1.82362764197488        0.44061653550438
C           -3.03533143710345        2.91216764859473       -0.55011776420848
H           -2.63364543450639        3.76725975313638       -0.01047991983881
H           -2.27243500334709        2.54001059835538       -1.23054330489271
H           -3.88807535361653        3.24443236261270       -1.14064221277456
C           -4.42444381161848        2.42585687762477        1.47067806643345
H           -5.24861373891181        2.95878303417377        1.00077744577506
H           -4.81588232492186        1.65467400686298        2.12916778651396
H           -3.86569423611232        3.13764901924822        2.07425933653804
C            2.76194353799585       -2.70599224837376        1.12662334019601
C            3.77941599673140       -3.04119438109709        2.21564918784849
H            4.55903380965474       -3.71116505274064        1.85675109393729
H            4.23140426787575       -2.13936254441924        2.62115605120010
H            3.25393795168726       -3.53971681555374        3.02611322920578
C            2.23596478087093       -4.00774673483723        0.50538356810818
H            1.85700835823412       -4.65594323888231        1.29035228102628
H            1.42420662719457       -3.81159964751372       -0.18969505601406
H            3.03342566343222       -4.52630641164237       -0.02614931767290
H           -2.60302031351808        1.48075595584657        0.99750512177852
H            1.93381879560398       -2.21560584598259        1.63013331062240
H           -6.04061887983330        1.13906012380124        0.21201422277120
H           -7.12592207936504       -0.50794298391045       -1.20384723594058
