75
 energy: -118.549089044417 gnorm: 0.000566492651 xtb: 6.5.1 (b24c23e)
Si           0.12557379769309       -0.31093978685897        0.00135031547861
O           -0.66180664124333       -1.72055592757562       -0.02498264596080
C           -1.67913992407763       -2.28416275535161       -0.81182957071495
C           -2.93099648134921       -2.46610883784532        0.01094457129661
H           -1.89493472465797       -1.62876230959081       -1.66419055996518
C           -2.88463621155182       -2.46431892185083        1.39762246181202
C           -4.14872029109972       -2.66014985390843       -0.63050786034494
C           -4.04279714015430       -2.64983677871662        2.13335019134145
H           -1.93969324133749       -2.30782983086073        1.89390729807264
C           -5.30300169986255       -2.85383553442523        0.10594068876461
H           -4.18921012542563       -2.65215970489174       -1.71052841051996
C           -5.25271866369463       -2.84827945572301        1.49073326848260
H           -3.99822517584710       -2.64204621626518        3.21264725094967
H           -6.24527975237493       -3.00332615146817       -0.40062326128943
H           -6.15554435537683       -2.99472932984509        2.06542272568021
C           -1.17801718276567       -3.64758696120438       -1.33109891314970
C           -0.22977598349828       -3.47342606000498       -2.40885440700918
H           -2.02965262850242       -4.23287642319439       -1.68713084194883
H           -0.70544665025138       -4.17542464358722       -0.49884148806188
C            0.53400814457375       -3.29155711880278       -3.31191423368183
H            1.19715041123680       -3.14531146019764       -4.11115057233440
Cl          -0.68794446183449        0.40999211631353       -1.91396949758130
Cl           0.99206551935249       -1.02310118578746        1.85615224464039
O           -0.33763432054956        1.09652434244513        0.84887631826226
O            1.63104384654084        0.18876024829833       -0.64017282008930
C            1.10941472248943        2.75482535629661        0.16689178716306
C            2.26062493871834        2.00323227015738        0.61557465954282
C            3.62694209542764       -0.00005433087042        0.63115462696057
C           -1.28121600011136        3.02553861330534       -0.16109688018253
C           -1.02101259484551        4.29525173530783       -0.75350839547823
C            1.33931437873736        4.05010381792862       -0.32641157961624
C            0.30908156952037        4.79068119504633       -0.81216920405948
C            3.18235150354227        2.65796232458358        1.44963524327242
C            4.25030238354005        1.98225503464527        1.94918474393610
C            4.49101672956090        0.63568840478897        1.56769909738948
H            2.35699396003843        4.40089701538077       -0.38619735284317
H            0.48127176054083        5.75751315885672       -1.25757979235095
H            2.97077771097284        3.67124164873810        1.75092762429085
H            4.92313569047813        2.44894636252005        2.65088814037969
N           -0.17905618828059        2.31564488937187        0.26143585485486
N            2.54074905642493        0.73315387361186        0.21194824729127
C            3.94011210148750       -1.30706599670651        0.18073450426706
C            5.58733552272669       -0.04755181625767        2.10240616491032
H            6.21292257774397        0.45683527889663        2.82264946023599
C            5.04549949817735       -1.92699422426121        0.74364804582445
C            5.85222663803853       -1.33269388668552        1.70496676041429
H            6.68970480981410       -1.87596353180922        2.11480444290863
C           -2.62520379615571        2.59283528830702       -0.02596892141368
C           -2.06427813438926        5.07538475258288       -1.26001972113479
H           -1.82888954976487        6.02453135129438       -1.71637182394355
C           -3.35827895021843        4.63238570543642       -1.16304326264816
C           -3.61488386590102        3.42055638690812       -0.53706262981256
H            5.30215588530274       -2.92138862793362        0.42227810710830
C           -3.06535804955656        1.33780066695082        0.70311167252603
C           -2.96639166579582        1.57441218031932        2.21513667413448
H           -3.30850095898019        0.68905410502911        2.74505948051068
H           -1.94132065926887        1.77313212710469        2.51383279096254
H           -3.58868132732697        2.41979107221609        2.50500461675429
C           -4.47956882795367        0.87157571546425        0.35582391535580
H           -5.23962283604672        1.53179919583224        0.76813301824133
H           -4.60941159546755        0.79308083138628       -0.72078379558813
H           -4.63371743872319       -0.11517997550628        0.78521671195354
C            3.22265002994431       -2.02638321449008       -0.94378313428838
C            3.43138640478386       -3.54063516234591       -0.96323089855879
H            4.43398572408276       -3.81286154955709       -1.28676380345869
H            3.23716627225964       -3.96758439518579        0.01756998173679
H            2.72315032888570       -3.97483668595191       -1.66618091192097
C            3.68875774987889       -1.41712488478428       -2.27192441158691
H            3.22520546528398       -1.94427298521054       -3.10042142756241
H            3.40804953742772       -0.36942733661639       -2.33710044495814
H            4.77088588823359       -1.49802426657689       -2.36619916574138
H           -2.40853326241778        0.51394396950108        0.43723719825081
H            2.14988257602400       -1.87983284197326       -0.85606911273289
H           -4.64283978041902        3.11623566543639       -0.44805068982128
H           -4.17491509243570        5.22104026040957       -1.55178146356042
