81
 energy: -124.859834862737 gnorm: 0.000489615503 xtb: 6.5.1 (b24c23e)
Si           0.12270639484055        0.11106951115820       -0.39262649690430
O            0.60842579194267        1.54538364384275       -0.97302207687699
C            0.65232013056111        2.84017994263692       -0.41215587319677
C            1.93502560799613        3.04467045136710        0.34927208458424
H           -0.20261971111072        2.97796948693351        0.25853595496288
C            3.13526231932749        2.61861363040066       -0.20342418118280
C            1.93696307476428        3.66852469838431        1.58788119099986
C            4.32465000939085        2.81705411854024        0.47321722148702
H            3.12552661911284        2.11750226911668       -1.16027474689327
C            3.12819805145824        3.86821622626327        2.26299591952421
H            1.00307102056240        3.99203232881582        2.02257220897432
C            4.32336775090751        3.44509623454040        1.70697310180897
H            5.25477946661579        2.48300060264411        0.03662792685389
H            3.12307594699029        4.35292985372625        3.22841738060706
H            5.25254033420118        3.60195523763098        2.23575590366457
C            0.55329138209857        3.84060269225590       -1.57775133470891
C            0.45932519771044        5.19761554702959       -1.08862493788071
H            1.43679587483173        3.73483122731124       -2.21175771369352
H           -0.33079949089098        3.59980601420098       -2.17283986544885
C            0.37230898051154        6.31443307311580       -0.66798152374890
H            0.30260575017610        7.29813407091950       -0.31117137098675
Cl           0.83519871744396       -0.70868418963547       -2.25537342210100
Cl          -0.41927363321980        0.87723147946499        1.59414554650599
O            0.71889452822586       -1.23030850924414        0.50861831756855
O           -1.45395795850804       -0.42224905884332       -0.77105829034273
C           -0.66218558082252       -2.98049062565158       -0.07637443772514
C           -1.78623950526813       -2.30267607853387        0.54575190215929
C           -3.23248500172812       -0.38932938742410        0.77420500298516
C            1.69798577312237       -3.11052975074916       -0.53836976612295
C            1.42664356407877       -4.17385862791725       -1.44700789298623
C           -0.87550311895905       -4.20252528200769       -0.72204029981850
C            0.12601032008331       -4.74062580317325       -1.47730783383606
C           -2.46952535691574       -2.95910411241071        1.57565298113968
C           -3.33515424125772       -2.25312198969784        2.36032690143635
C           -3.68183243522623       -0.91963070206943        2.01785652830701
H           -1.86949270303567       -4.62044180032661       -0.71674389610839
H           -0.05481662428803       -5.59252049749772       -2.11269648468231
H           -2.18669250513775       -3.97194924899211        1.81411086895730
H           -3.75159327594421       -2.68511233867202        3.25585667453798
N            0.59825236278038       -2.48644082342935       -0.00078628876055
N           -2.20219603045720       -1.06826292471438        0.16691959725173
C           -3.83750533188829        0.78145649925046        0.25912527119862
C           -4.46992510483931       -0.13601551381370        2.86370795664600
H           -4.78455156539188       -0.54001471667756        3.81318742445968
C           -4.52940377146186        1.55622729330488        1.18503557996863
C           -4.79927503982539        1.14226989829059        2.48190971683988
H           -5.32998183165099        1.79856969702340        3.15398579150733
C            3.03915812347765       -2.75972168377813       -0.25556125311600
C            2.44318782459601       -4.65895733432737       -2.27340532742141
H            2.21945210361182       -5.44832895231932       -2.97373848525081
C            3.69582660018619       -4.10166907293426       -2.19592680671259
H            4.47540496896058       -4.40122144951531       -2.87904003160209
C            3.98431677483837       -3.21183952562350       -1.17015599063651
H            5.00364991489564       -2.87927262436930       -1.07606029142874
H           -4.90090169645294        2.52094046473829        0.88469365552120
C            3.54258296068890       -2.07255971931678        1.01689559157140
C            3.64328070352454       -0.55265169862174        0.84780945728264
H            4.19971222088326       -0.31287322553305       -0.05510443364152
H            2.66612574466884       -0.09055946861620        0.77862141070894
H            4.15800972911784       -0.11702437345484        1.70134758443891
C            2.66623674136801       -2.43933984925475        2.22490370299650
H            2.51209691569916       -3.51695975079836        2.26677496343739
H            3.16491178567790       -2.13029554944338        3.14072867864961
H            1.70536838219746       -1.94143386600975        2.20423311153905
C            4.95736096163071       -2.58850248373128        1.35116311738321
H            5.00148002708874       -3.67436166747315        1.29961241814726
H            5.71182740620390       -2.17026879440172        0.69099589287350
H            5.21595082026238       -2.28483946683699        2.36288819382651
C           -3.93619665547218        1.17117928464852       -1.21829004850334
C           -5.27524342427029        1.89788675778074       -1.46070411343915
H           -6.10249375764799        1.35972287601905       -1.00279028826399
H           -5.26193780332119        2.91627585989298       -1.08265507859012
H           -5.45909699118701        1.95704133959008       -2.53099230205485
C           -2.81641867351551        2.12530553776175       -1.64868000166423
H           -2.73499799874012        2.95136969606951       -0.94461755011540
H           -1.86412800188391        1.61247073020704       -1.69864997811473
H           -3.03990932979470        2.52791944984752       -2.63470704388577
C           -3.96680183582049       -0.07799905284850       -2.11289015801827
H           -4.25011506066017        0.20783283772865       -3.12334575790439
H           -3.00086797479749       -0.56270162126189       -2.17820277226954
H           -4.70233365791713       -0.79038735052360       -1.74139828668903
