81
 energy: -124.858671933439 gnorm: 0.000472827262 xtb: 6.5.1 (b24c23e)
Si          -0.08964427229000        0.25003037891099       -0.02740432391649
O            0.83445827638360        1.56184817304111       -0.19667463048540
C            1.12388645573281        2.68047172799425        0.60297455428669
C            2.56784365122268        3.06462747629683        0.40555140944560
H            0.95039253369982        2.43514263675728        1.65804164303737
C            3.22453941301808        2.76808108168756       -0.78021161403620
C            3.24785615869554        3.73541218496250        1.41353828705978
C            4.54770157246838        3.13423772593441       -0.95153981956696
H            2.69189020034000        2.24107537526850       -1.55553972530962
C            4.56854097300450        4.10632977365021        1.23747771579945
H            2.74057088902797        3.96345131742728        2.34078358781679
C            5.22202835236184        3.80466339979240        0.05446047576906
H            5.05406988869408        2.89549288947621       -1.87549618143594
H            5.09081543896844        4.62731851211606        2.02696996509999
H            6.25521943401203        4.09035921512632       -0.08045739543358
C            0.18063029654865        3.84126155278687        0.22786258028279
C            0.26866112806442        4.15314051290274       -1.18148088158831
H           -0.84109661716205        3.53927633574227        0.47335343085003
H            0.44657166212568        4.71924874237541        0.82197519883881
C            0.34960137654624        4.38561054924446       -2.35208928525449
H            0.42054616705083        4.59373747909387       -3.37734181238768
Cl           0.67015526647092       -0.38118072737603       -1.93130209832194
Cl          -1.03296963370324        0.95876071639169        1.86202259163544
O            0.45867456713813       -1.10298651457551        0.85275956868969
O           -1.60561545993958       -0.31232980357880       -0.59911412550431
C           -0.89353493824531       -2.84499178791355        0.14799423444947
C           -2.07292855090869       -2.18094426627811        0.67461499608955
C           -3.57979184791576       -0.29852820336179        0.69526435712245
C            1.48297834014973       -2.91335158299437       -0.25425525772376
C            1.25552586428690       -3.95606264603591       -1.19810787528903
C           -1.05792108802983       -4.06480244262185       -0.51789025034103
C           -0.02437376554446       -4.56749248856600       -1.25357422661998
C           -2.85525666737940       -2.83873636832204        1.63013019699899
C           -3.83194846113200       -2.14656754853791        2.28581631065886
C           -4.17651848436749       -0.83226306535741        1.87387083520849
H           -2.04240029971857       -4.50349575037656       -0.55039132506033
H           -0.16739055129823       -5.41544902584198       -1.90361751593811
H           -2.57664680610311       -3.83884727853691        1.92155100929747
H           -4.34369139613165       -2.57575682394230        3.13212733301327
N            0.35753044739645       -2.33920581436664        0.28863185972130
N           -2.46568020636116       -0.95799911750401        0.23574318651309
C           -4.13347609604921        0.85727166636290        0.09367565993937
C           -5.09744090838589       -0.06813631378005        2.59460473024483
H           -5.52522403125370       -0.47440079022440        3.49783330391842
C           -4.97252681662844        1.61233360064546        0.90659808086369
C           -5.41184356097144        1.19493097875669        2.15570429009075
H           -6.05262085554612        1.83738914716406        2.73955902475170
C            2.81006716540904       -2.52324053355394        0.04553242828477
C            2.29041648957267       -4.37208190668142       -2.03867432992280
H            2.09946209611415       -5.14815283408404       -2.76312600786632
C            3.51616248495576       -3.75888399854823       -1.94790356036791
H            4.30438412415259       -3.99677931087540       -2.64504637573031
C            3.76875929481470       -2.89502241093754       -0.89142674548297
H            4.77111290308539       -2.51648490788532       -0.78892232178606
H           -5.32574281503500        2.56500110353331        0.55093047579057
C            3.29820068304856       -1.88654893382337        1.35009488332053
C            3.37486314131787       -0.35817346103561        1.26162860231861
H            3.90929818133266       -0.05348806355961        0.36475702943108
H            2.38905871540669        0.08614024042821        1.23361730349563
H            3.89979771014509        0.03637901434764        2.12900190190453
C            2.42618053762750       -2.32782791986958        2.53623897870861
H            2.29945558134536       -3.40976582908910        2.53007070469178
H            2.91324184050604       -2.04741334583333        3.46750286821877
H            1.45241657237121       -1.85495207532641        2.53080195891434
C            4.72052617626485       -2.39761197628508        1.66043304727375
H            4.78351907743150       -3.47781554962885        1.54645567302303
H            5.46908950909987       -1.92908788668793        1.02811763491248
H            4.97146529224686       -2.14857738306118        2.68891465898689
C           -4.01707009011276        1.25326475401143       -1.38142430292384
C           -5.31961571146012        1.95414352824599       -1.82088905223049
H           -6.19482301990050        1.39302761647454       -1.50002423436424
H           -5.38839393505727        2.96868349702752       -1.43858880815891
H           -5.33753661686738        2.02149242108043       -2.90606621562577
C           -2.86849509101353        2.23684944655106       -1.63406077397222
H           -2.94334847207280        3.08498459966928       -0.95672972480433
H           -1.89962018242753        1.77114403322497       -1.49957234550519
H           -2.92045055692992        2.60710859947716       -2.65509454410911
C           -3.88764479178361        0.01030136641992       -2.27638943273793
H           -4.04635200585511        0.29450809087156       -3.31402110020428
H           -2.90506368998267       -0.44057604495403       -2.21836669100891
H           -4.64066463569372       -0.72938572935329       -2.00686365560844
