81
 energy: -124.854236683580 gnorm: 0.000464416237 xtb: 6.5.1 (b24c23e)
Si           0.11786153072641        0.68945593762531       -0.53818134451186
O           -1.22962740519348        0.66388678624731        0.37272075004977
C           -2.12710784102436        1.40166368878139        1.16534421439924
C           -3.13938012673715        2.13228001094737        0.31615341616073
H           -2.65783326297683        0.62511997833542        1.74026240009599
C           -2.75068225157227        3.05415642338980       -0.64668151080279
C           -4.49187101412774        1.85839683306294        0.48181093601050
C           -3.69924242601036        3.67839887424543       -1.43788921518068
H           -1.70637452628633        3.28126155808808       -0.78541940781848
C           -5.43956349119205        2.48927606850220       -0.30417851411074
H           -4.80237622010978        1.14346787877318        1.23116682304096
C           -5.04424077912094        3.39790984368392       -1.27116887678184
H           -3.38240810842907        4.38716675529357       -2.18803800518960
H           -6.48793887762866        2.26667373289792       -0.16547614461164
H           -5.78256893177373        3.88451519405938       -1.89154796718657
C           -1.42905814420742        2.32749029090800        2.17717119388024
C           -0.53791042853172        1.54319379964295        3.00318562415760
H           -2.19497845591110        2.80424157386162        2.79417891783779
H           -0.85899001649648        3.09538923644392        1.65289937724870
C            0.17823488648646        0.81420462139247        3.62637341936159
H            0.82711431937192        0.22404275757365        4.20128069431083
Cl           0.38891778422732        0.83757808269893       -2.59255261908736
Cl           0.66172822091549        2.74166082904141       -0.23461254290399
O            1.54558089649815        0.29258069401310        0.31435166267613
O           -0.24999845715329       -1.03874358637116       -0.92074662048598
C            1.84300273270044       -2.04786289838918        0.27180447598797
C            0.51993126319068       -2.28425293822620        0.81970428941666
C           -1.84677197351223       -2.02262354462207        0.54825179864595
C            3.60941301191212       -0.57192644508077       -0.39836480592947
C            4.16240701592280       -1.62640809832116       -1.18200866013327
C            2.58662210012336       -3.14616607751775       -0.17146471150704
C            3.65626251772599       -2.94011434599318       -0.99840480511431
C            0.34901138966015       -2.98776302694121        2.01252321672281
C           -0.88367447643472       -2.97981695431603        2.59949946708921
C           -1.99903569416435       -2.44291609783548        1.90406077707405
H            2.20324458936930       -4.13475933984940        0.02395439697618
H            4.13155506837695       -3.76113535436474       -1.50951795179782
H            1.21606278102821       -3.40144667181625        2.50206638872720
H           -1.03090787760521       -3.36869257804618        3.59414415566332
N            2.34342022766444       -0.79986703134207        0.11800522257574
N           -0.55132492034623       -1.83663642700194        0.12951550122334
C           -3.00330675517267       -1.81524372426960       -0.24267985234906
C           -3.24640760375136       -2.34970170282896        2.52829113369222
H           -3.34033451331540       -2.64886691739366        3.56064825832888
C           -4.19506104596884       -1.65236705591855        0.45587797856050
C           -4.31887551387514       -1.85937640806687        1.82296815680440
H           -5.27173451351831       -1.70513503457432        2.30622838062722
C            4.35163148067935        0.61145442436691       -0.21518599233778
C            5.22147879318189       -1.35660918999535       -2.05084705916025
H            5.61739107891743       -2.15223998518407       -2.66222327664702
C            5.72748423428994       -0.07742310434504       -2.11869644118330
H            6.48401268296644        0.17568967813119       -2.84512988809110
C            5.34010452114490        0.85503626334456       -1.17030606520081
H            5.85113298642143        1.80409977641309       -1.15576630867093
H           -5.08121987925715       -1.37218065612164       -0.08732184645295
C            4.36081104664198        1.51441662193951        1.01831586232525
C            4.02156783358747        2.96392492964237        0.66351371455798
H            4.70743700189631        3.36304986036908       -0.07888980093900
H            3.01208251770710        3.03519335523284        0.27345656026008
H            4.08500264906344        3.58274263429150        1.55536398562697
C            3.45971537370839        1.04905957985860        2.16555722084553
H            3.58301221658873       -0.01748750894958        2.35145037384891
H            3.73939447657304        1.58276794717496        3.07178917475967
H            2.41512883974157        1.26378467706786        1.97343330226826
C            5.80441049932822        1.45188884440870        1.56633211111052
H            6.07646171632270        0.42510184807290        1.80545967460855
H            6.53229820042891        1.84087684042921        0.86143029404095
H            5.87132775647990        2.04546444960934        2.47507271753212
C           -3.08970278415128       -1.89306398324933       -1.76656850660220
C           -4.43715442634676       -2.53106036873065       -2.16447032554817
H           -4.63661847806628       -3.42565101767597       -1.57773340461497
H           -5.26757256446918       -1.84016402669628       -2.05024420926060
H           -4.40059571215852       -2.81337134056862       -3.21391848853800
C           -3.02922538219163       -0.49912455884284       -2.39865949130923
H           -3.76902979045531        0.15845419801036       -1.94625527822968
H           -2.05209851982650       -0.05482917994518       -2.26532265666244
H           -3.22822228738043       -0.56943398825949       -3.46539746857185
C           -2.00018277698138       -2.80567234888959       -2.34740284833405
H           -2.21910833284298       -3.01133008665905       -3.39258977243588
H           -1.02222297551831       -2.34278747780284       -2.31163439999259
H           -1.97259667976719       -3.75401629686619       -1.81142393484587
