81
 energy: -124.853844652538 gnorm: 0.000557872978 xtb: 6.5.1 (b24c23e)
Si          -0.40901144367718       -0.33901991457948        1.28526223777803
O           -0.03894877363979        1.12243928211443        1.89436290343686
C           -0.01072479215166        2.42163558093509        1.35408515187165
C            1.15275427180585        2.59193601779680        0.41207877049315
H           -0.94850613311115        2.62506481321880        0.83139283813186
C            2.40718640420880        2.12204092575307        0.78144768444302
C            1.00523157170998        3.26203104279632       -0.79379454031908
C            3.50496223930657        2.35741013702902       -0.02444687526115
H            2.51256673884185        1.57244137661723        1.70485794441354
C            2.10288229244270        3.48352717662866       -1.60780893607713
H            0.03040789130222        3.62185700117865       -1.09120307494841
C            3.35604130036945        3.04643290192744       -1.21668006160368
H            4.47944238761547        2.00755731980456        0.28101944576395
H            1.97958722564951        4.01007374210984       -2.54319753645228
H            4.21611184624627        3.24107800301284       -1.84002139625437
C            0.14737954389249        3.41281311876878        2.52510720037791
C           -1.02453999843421        3.43424452088323        3.37212278189133
H            0.32818152151282        4.41230177946685        2.11909217810519
H            1.01173247289813        3.10779227750476        3.11923787325385
C           -2.00268600352004        3.44323079687395        4.06079931317581
H           -2.85121185569159        3.44470670833704        4.67703953789305
Cl           0.47040218759136       -1.18887357861016        3.00781980239262
Cl          -2.10542496661180       -1.59349816813814        1.48494570526955
O           -1.22193247343652        0.45233798983981       -0.13999486803709
O            0.75942571876167       -1.14766559035332        0.35293016677902
C           -0.94272605426053       -0.85002922765262       -1.99102694000824
C            0.48260572306928       -0.59260432699440       -1.94842951809512
C            2.65579233020556       -0.95579990954357       -0.99983058257367
C           -3.16067203306317       -0.50357085207075       -1.14617848708010
C           -3.58341429309067       -1.61935973381316       -1.93004927344641
C           -1.42301072668126       -1.70613867760386       -2.98955896753952
C           -2.70209365297248       -2.16616892894917       -2.89782071577402
C            1.07872727958519       -0.06092970430535       -3.10029786188048
C            2.39927204525459        0.28193415358090       -3.09311075612891
C            3.23107047346097       -0.15785986881340       -2.02994660513737
H           -0.72834753607028       -2.09048262553034       -3.71884721997894
H           -3.06053145061415       -2.95102491430780       -3.54398187396989
H            0.44082306940046        0.17733494523279       -3.93634715081336
H            2.83597347525570        0.84229920652535       -3.90315171128215
N           -1.80050582079969       -0.27444069884626       -1.12142265823495
N            1.27380500021617       -0.91441896009685       -0.89298251239250
C            3.50031619788858       -1.72437889265181       -0.17240359369790
C            4.59981981433247        0.11366956858736       -2.01872403188174
H            5.02258168346997        0.71942105943329       -2.80458498048323
C            4.83502378430567       -1.31641187530669       -0.12921301436538
C            5.37618628317255       -0.38176677223783       -0.99539111726123
H            6.41788597463807       -0.11104215673059       -0.91402618282215
C           -4.14620820264837        0.25139940270750       -0.46296446850798
C           -4.86615248071529       -2.14979297275064       -1.76744633004246
H           -5.15371654096087       -3.01014510905257       -2.35135992202743
C           -5.72007134412684       -1.58314266722276       -0.85500575445084
H           -6.68265110459125       -2.02394307632076       -0.64846047630825
C           -5.37116882347146       -0.37487270224036       -0.26828641216024
H           -6.10729682674064        0.10609285342574        0.35217647933647
H            5.49336555761354       -1.77817251744892        0.58849894863871
C           -4.03427284657779        1.71398925789813       -0.03701239319974
C           -3.58824532666717        1.82204250481819        1.42379833826612
H           -4.29699886772937        1.30215325543449        2.06448627540521
H           -2.61668358449694        1.37369708145547        1.58270264130163
H           -3.54036908889681        2.86485265581809        1.72921290931331
C           -3.11484084402454        2.49316122422171       -0.98854398574075
H           -3.48485006388588        2.41021685639039       -2.01020944712454
H           -3.11252377796435        3.54556134060678       -0.71046758553170
H           -2.09157545005764        2.14359021841227       -0.96185404200361
C           -5.41027611778583        2.40199346435745       -0.15154542546825
H           -5.88469545217457        2.17407850255425       -1.10388429544649
H           -6.08103436527963        2.11861227779837        0.65408224825897
H           -5.27298078746422        3.47908762463346       -0.08784976584529
C            3.18682467451510       -3.06211554509561        0.50082266988041
C            4.23946287539000       -4.06483862491684       -0.02463137310263
H            4.20528511369889       -4.11735615490635       -1.11140360339613
H            5.25049679256358       -3.80673843238690        0.27255680129972
H            4.02399914663946       -5.05355215795112        0.37308249380506
C            3.30605304939913       -2.95719977218912        2.02317771845955
H            4.28618749728948       -2.59111749921612        2.31802406122529
H            2.54776727974682       -2.28888967228641        2.41935990097412
H            3.15800225591456       -3.93733678060886        2.46936839863438
C            1.82704912961978       -3.66788491214232        0.13652585780894
H            1.83431404410117       -4.72745355949675        0.38241532544825
H            1.02262026927755       -3.21326374203462        0.70045956244045
H            1.62520246991120       -3.57362969108343       -0.92980684179910
