81
 energy: -124.764422106785 gnorm: 0.000792086645 xtb: 6.5.1 (b24c23e)
Si          -0.48901018214836        0.08871729257940        1.25359344799237
O            0.82870529194788        1.11788670130039        0.40540267381415
C            2.05674608449260        1.14258539270954        0.68099847448136
C            2.96094895868249        2.05835648905887        0.07383723383090
H            2.45277114047091        0.45426065960630        1.42593463504678
C            2.52216425710305        2.95731046570467       -0.91579781154884
C            4.31519072547621        2.06666505342825        0.45006547151424
C            3.41229672101098        3.81970943556013       -1.51149258279432
H            1.47759181495121        2.94999982259684       -1.18646902514390
C            5.19462520815573        2.94091394941537       -0.15088014819413
H            4.64966606843945        1.39213105681422        1.22350585807383
C            4.75148204770204        3.81308340023370       -1.13617093742797
H            3.07215670432415        4.50874376743597       -2.27049207534598
H            6.23354646348094        2.95005302568522        0.14486670313552
H            5.44607805282889        4.49347291039299       -1.60560400602344
C            1.98438941019981        1.48585682268607        4.01847195622362
C            1.21718577010230        0.58195403760290        3.48937923666210
H            3.05409013461590        1.49274242044097        3.87879066340560
H            1.57587385367281        2.26267645455708        4.64309166239457
C            0.43550782695205       -0.26471839530088        2.90644951922856
H            0.16024989023673       -1.17244554496844        3.42341647472018
Cl          -2.14299356723721       -1.24556301416233        1.86136951012423
Cl          -1.24378739581265        1.97075286227994        1.96363986517855
O           -1.41779749315930        0.47181246856805       -0.28056151560573
O            0.34244856515902       -1.37345298515630        0.40447414032674
C           -1.45751293171823       -1.37050062419483       -1.59148663723324
C           -0.04048786570756       -1.08061837977752       -1.84701396847755
C            2.19881156625976       -1.06861317503386       -1.04232285618210
C           -3.49145998048864       -0.55162639345957       -0.68215951944519
C           -4.04605124031289       -1.85813122463865       -0.84218140173573
C           -2.06559873939171       -2.54445947367058       -2.02898438724380
C           -3.31651385230939       -2.83479729157004       -1.55363399195360
C            0.35601712473699       -0.60416195668717       -3.08590538375581
C            1.63260193664537       -0.11006273584850       -3.22664188147706
C            2.57895633361015       -0.33181266942975       -2.20504864616493
H           -1.49347876558932       -3.24561858335564       -2.61476697568329
H           -3.75574602086336       -3.80764392596837       -1.70671002131838
H           -0.37212515499520       -0.53615671959566       -3.87791237488882
H            1.93137902078702        0.41795376985807       -4.11691138258573
N           -2.13824660018372       -0.45540287011909       -0.89887478128202
N            0.83899266304401       -1.19882442164091       -0.83173480912259
C            3.20545871436695       -1.63919478932213       -0.22707333758608
C            3.90459439706180        0.10541656404528       -2.34220070028098
H            4.17369471120074        0.69311753594375       -3.20542169669744
C            4.48733710824744       -1.12237186489323       -0.38201588827594
C            4.82744851457557       -0.21722461256775       -1.38034872665020
H            5.83846572474524        0.15374571334831       -1.44427782876976
C           -4.33162389547477        0.52030045853322       -0.29532704500890
C           -5.30289803297138       -2.14501774687072       -0.29121577918558
H           -5.70323532729025       -3.14171100442950       -0.38981437353673
C           -5.98017189891738       -1.16117288402808        0.37932727091819
H           -6.90753369190386       -1.37828916522603        0.88643404568004
C           -5.52377486727187        0.15198119775290        0.31241833067399
H           -6.15423274658935        0.92141034426778        0.72772888739843
H            5.27045641633106       -1.45488476068898        0.27753122861064
C           -4.19735353811995        1.99337096779913       -0.68099714278426
C           -4.25440162729781        2.90152316554214        0.55099724027649
H           -5.18471144754206        2.78163959166116        1.09866503760945
H           -3.42544172806102        2.68072823254042        1.21733730827544
H           -4.17614252765096        3.94028384967601        0.23904768542844
C           -2.95661001683846        2.35969182364433       -1.49712532769908
H           -2.79807016971871        1.66172359008154       -2.31835868715754
H           -3.09666783965592        3.35073317276066       -1.92431522676164
H           -2.07285342358892        2.38983485880765       -0.87162557579398
C           -5.41102280543739        2.28504231260126       -1.59230768117853
H           -5.38544523457776        1.65016962421884       -2.47676246241345
H           -6.35614373847184        2.12007915234825       -1.08410436190094
H           -5.37975424718131        3.32321679697651       -1.91466337913381
C            3.02979967572402       -2.87608817001064        0.65469810281758
C            4.32174382153189       -3.71608609642573        0.61786029453879
H            4.66616965721386       -3.86050186583681       -0.40415563556163
H            5.12095621403201       -3.26524326634224        1.19954498625838
H            4.12366050662346       -4.69282700103013        1.05289617119944
C            2.75369696967674       -2.48869372774079        2.10859977359003
H            3.54090455368322       -1.84151710938724        2.49188910639229
H            1.80630400151807       -1.96770381101379        2.18495487160338
H            2.70982760865662       -3.38174483977876        2.72752219896003
C            1.90680853666642       -3.78220882466846        0.12775973363737
H            1.96721036014815       -4.75312436830999        0.61411174936189
H            0.92643719368138       -3.37633254290452        0.34738866611431
H            2.00779927370380       -3.93329637500632       -0.94655423847647
