81
 energy: -124.853323772140 gnorm: 0.000509418415 xtb: 6.5.1 (b24c23e)
Si          -0.20978918426031       -0.00523457232622        1.13419526699701
O            1.29824056913138        0.55201542133820        0.89143587016372
C            2.23093177112807        1.57940752626104        1.09486394717364
C            2.22298417624912        2.53577084543132       -0.07398256618153
H            3.20167907441848        1.05773672631228        1.11274810666040
C            1.03165054915082        2.93444988588613       -0.66283503135193
C            3.42370160701149        3.01488283149631       -0.58250812617520
C            1.04107604299898        3.78476360237744       -1.75417077208710
H            0.09543323780965        2.57674838863805       -0.26592375534114
C            3.43234475045892        3.87224005313104       -1.66752698106547
H            4.35495785194255        2.71105126222945       -0.12588691069037
C            2.24064507462611        4.25378013393728       -2.26078884458912
H            0.10682419295494        4.08411460741751       -2.20604437396934
H            4.37184187993678        4.23958107227532       -2.05451644869465
H            2.24806274058791        4.91775479990143       -3.11289474952842
C            2.08643600250104        2.33150638741730        2.43088296658419
C            2.08971591966201        1.38777540706965        3.52732214268253
H            2.92919010002977        3.02208580972685        2.52189393058600
H            1.15508677440986        2.89958360803846        2.44389886348702
C            2.08118621538953        0.54508042167628        4.37649511061352
H            2.05604886141155       -0.16457303889350        5.14809410907998
Cl          -0.86052224167844       -1.35519832028061        2.54558825197807
Cl          -0.98502710418909        1.69699899222211        2.18444710319118
O           -1.39332181807839        0.36613616294069       -0.05485054076294
O            0.32876860679257       -1.47569226576598        0.20171773969823
C           -1.29324508387311       -1.16449467490542       -1.83089740039115
C            0.12581568031569       -0.91771968152494       -2.00123506105150
C            2.31648065011671       -1.07027049044275       -1.04616641981858
C           -3.36087152098775       -0.77808890833583       -0.67599760583791
C           -3.82246122536969       -2.04170190225062       -1.15331945918698
C           -1.88969314709393       -2.17618826263018       -2.58931032058929
C           -3.08833469103441       -2.69056581187558       -2.18136665845692
C            0.63724886129389       -0.41702522785553       -3.19888734558902
C            1.93694588636295        0.00064137359050       -3.22707780732526
C            2.79587641487482       -0.27867422618035       -2.13206704180561
H           -1.31492152929162       -2.62902728031296       -3.38107979167689
H           -3.49064535981008       -3.58661082857101       -2.62473082576667
H           -0.03813651378151       -0.24932501719195       -4.02232961623005
H            2.33042474785282        0.54581837343980       -4.06947027544406
N           -2.02165591863367       -0.50555963579839       -0.89999872005551
N            0.95064876363850       -1.21438443070852       -0.97236004918059
C            3.24427202519097       -1.62850900039097       -0.13517099252367
C            4.11286346020788        0.18909694727559       -2.12649475182392
H            4.45214430428284        0.80789578065948       -2.94226150502289
C            4.51392549143012       -1.05913052445678       -0.13560326370888
C            4.93789011172939       -0.12978609879624       -1.07555303738104
H            5.93459498792453        0.27972582432964       -1.01341942111079
C           -4.26815617540782        0.07256596597847       -0.01073234899184
C           -5.00700010352385       -2.58236978322881       -0.65102363170247
H           -5.33278888740838       -3.55032139120776       -0.99815594092724
C           -5.72449976468382       -1.87541931213126        0.28801314949412
H           -6.59288856366655       -2.30958557232753        0.75852866891163
C           -5.38801528076415       -0.55578952195985        0.53826271572204
H           -6.04727889728916        0.02132220236530        1.16607833720593
H            5.22267392163658       -1.36622867392028        0.61472748482430
C           -4.31013081806768        1.60137030546203       -0.02973502560812
C           -4.34677316626744        2.18433964797268        1.38588759467579
H           -5.20279141960644        1.82391959344429        1.94931531500708
H           -3.44092981783870        1.92562788954110        1.92449014753260
H           -4.40848270482054        3.26849805045799        1.33064789937114
C           -3.18902564369096        2.28579121283820       -0.81482333511731
H           -3.00766835209501        1.79005494144155       -1.76724492518434
H           -3.47993584514139        3.31384923765423       -1.02135711646709
H           -2.27289971826095        2.31459625417828       -0.23919127469399
C           -5.62091311205184        1.95999803132420       -0.76608671356141
H           -5.60677407783542        1.56201680990656       -1.77956948704593
H           -6.49945666961976        1.57034866089713       -0.26135989900404
H           -5.71967716262445        3.04156274767627       -0.82321602995769
C            3.02505598057546       -2.86515586437433        0.73568925564665
C            4.34155024099208       -3.66503658908364        0.82150369539493
H            4.78891265462397       -3.79034722944167       -0.16261607374308
H            5.06563370825971       -3.19560763911195        1.48136138275960
H            4.13300142569003       -4.65138531709078        1.22904016610539
C            2.61857628900393       -2.47401774416655        2.15964539883296
H            3.33471569925603       -1.77207539021702        2.58219399568701
H            1.64206165824011       -2.00845174602443        2.16966980154105
H            2.58218461756640       -3.36044481191617        2.78868977596041
C            1.99028901719351       -3.81501218637352        0.11566850649346
H            2.02140522883789       -4.77183471706132        0.63181116333324
H            0.98207310872124       -3.43272616686854        0.21278724780931
H            2.21360358432514       -3.98758894015915       -0.93675283878673
