81
 energy: -124.853854912961 gnorm: 0.000776497794 xtb: 6.5.1 (b24c23e)
Si          -0.25699065591477       -0.11467732738335        1.34471551032419
O           -0.14743300409734        1.47517962934417        1.66804836706581
C           -0.33206083034952        2.63631708506629        0.89429116781700
C            0.77262454400170        2.79361154116539       -0.11787022660056
H           -1.29936063970041        2.59274489163675        0.38789607312514
C            2.09303140762697        2.61543882663402        0.27698135707733
C            0.49800753252507        3.16449693427658       -1.42621762233292
C            3.12434152512131        2.84736538631649       -0.61315776937886
H            2.30193734099857        2.29392744774153        1.28641098177015
C            1.53135484310115        3.38126896193264       -2.32157975583283
H           -0.52702502305688        3.29520904665135       -1.74270585047619
C            2.84527794187231        3.23966815811703       -1.91190765177472
H            4.14785039270432        2.72656312947939       -0.29173985554798
H            1.30818993751798        3.67324845517574       -3.33766491514116
H            3.65156883714493        3.43278220072381       -2.60367788721973
C           -0.31064491843042        3.84543879782154        1.85144560344653
C           -1.46443071912249        3.86250462024100        2.72255576960349
H           -0.28204695504726        4.76390609695476        1.25822476346770
H            0.59429170138405        3.78609463053744        2.45998836916833
C           -2.42792678284582        3.86882069652091        3.43144487496170
H           -3.26263631957009        3.86293214672812        4.06575290343770
Cl           0.76973587828602       -0.47166663822256        3.15587586768009
Cl          -1.71297409341843       -1.57434712900437        1.83839238796420
O           -1.20569203802907        0.25116206825266       -0.16650919208732
O            1.02903892092554       -0.86973400743735        0.53181175781862
C           -0.73989427135855       -1.32354971219943       -1.74818575034436
C            0.62435280543737       -0.83979064783082       -1.81960442423255
C            2.84341416938846       -0.66402081091704       -0.92656257730051
C           -2.97676255280014       -1.16952998596182       -0.89560519164839
C           -3.22225469606979       -2.46775048721239       -1.43664334544573
C           -1.08459224082882       -2.42323186332206       -2.54347302337462
C           -2.27224375930807       -3.04997799907642       -2.31443366870164
C            1.10702044813882       -0.45941479533740       -3.07965219244845
C            2.35340008098880        0.08166020439624       -3.20264555977644
C            3.26379736945986       -0.00446832947699       -2.11679256055773
H           -0.34345464291887       -2.82989720869568       -3.21237936725271
H           -2.50555595708703       -3.99247459379812       -2.78278474266221
H            0.42527854195801       -0.49435573430518       -3.91435295684496
H            2.67855197633137        0.53263946752482       -4.12558693565386
N           -1.67039248770215       -0.73129891412272       -0.96954704078356
N            1.47472679627363       -0.81822147668151       -0.76149224040806
C            3.81586788313643       -1.11522868450984       -0.01055454367523
C            4.57049669964340        0.47391144134582       -2.22383223411398
H            4.87611831258204        0.97148649455331       -3.13066782759691
C            5.06733590351008       -0.50431478848497       -0.11030498468656
C            5.43437749804751        0.31598295313037       -1.16366981737429
H            6.41955784793136        0.75640839730491       -1.18616890501020
C           -4.06476365094016       -0.45951390605278       -0.32917744171731
C           -4.40344920000390       -3.14880058323941       -1.12922612233177
H           -4.55363958935480       -4.13988077205193       -1.52810593820703
C           -5.33160441159241       -2.55541946974517       -0.31141523258467
H           -6.21157359327942       -3.09082977418120        0.00877259090995
C           -5.17419403246326       -1.21794519175034        0.02375243550563
H           -5.97341938774917       -0.74607460899910        0.56844907450291
H            5.80446657205561       -0.70933067724004        0.64874565305981
C           -4.18247823127908        1.05661340683289       -0.18452874797291
C           -3.74401775654581        1.50259835087039        1.21328165577864
H           -4.36114254638913        1.01544005669461        1.96497919314755
H           -2.71508288760635        1.23803085978542        1.41671397204555
H           -3.85032428982513        2.57996271603280        1.31871469322016
C           -3.40893411996510        1.77488759214668       -1.29958244870313
H           -3.77541024986596        1.44808399572080       -2.27252805894065
H           -3.56746608025581        2.84880317193974       -1.21802194748184
H           -2.34340332861840        1.59479249475961       -1.25304160886629
C           -5.65089746537849        1.49255588367978       -0.36778469283664
H           -6.09410698005611        1.02101888013470       -1.24256629191702
H           -6.25996635082381        1.26633610744190        0.50237083824089
H           -5.68388581469083        2.57070807086192       -0.50784269153375
C            3.73271450625244       -2.32844235876881        0.91754544862968
C            4.93262802985328       -3.23260338649320        0.55385523418587
H            4.91143330186168       -3.48701661039896       -0.50453508591635
H            5.88862537594401       -2.76912309747706        0.77467789112099
H            4.87572129661177       -4.15355962085561        1.12898735670865
C            3.84387217238893       -1.91202677225420        2.38607908253036
H            4.74829365213588       -1.33577145013559        2.56458147099274
H            2.98482654577775       -1.31698210734349        2.67991659205835
H            3.87205705970965       -2.79782557147671        3.01551306976433
C            2.48770641746776       -3.20107439851036        0.72522333009564
H            2.66535479023125       -4.17572055664070        1.17451854922392
H            1.62105757321308       -2.77623809131345        1.21534288547364
H            2.27241612479689       -3.35434915756257       -0.33182784663343
