81
 energy: -124.851462497937 gnorm: 0.000385282655 xtb: 6.5.1 (b24c23e)
Si           0.43386157038190        0.65452800003322       -1.10082104700243
O           -0.71568893969633        1.57252685336792       -0.40654261215315
C           -1.79753075089101        1.29740458952052        0.44272217871164
C           -2.97327076305719        2.17168474820300        0.08091836080520
H           -2.09796676015686        0.24806606218738        0.34774765637096
C           -2.79786103446859        3.35231587228481       -0.62446569724119
C           -4.25075108824216        1.79433319151190        0.47849925351729
C           -3.88992816428870        4.14455163434179       -0.93450647190167
H           -1.80396404038348        3.63329962710379       -0.93588613880726
C           -5.33954751468149        2.58935040538374        0.17107575558609
H           -4.38720652717715        0.87138843725160        1.02683147080954
C           -5.16069392863488        3.76640277014211       -0.53751368686963
H           -3.74659343635370        5.06058487756279       -1.48810940133401
H           -6.33026147118142        2.28909218626183        0.48093423019488
H           -6.01227203795876        4.38483973308658       -0.78039430701056
C           -1.37914254262852        1.56815253068363        1.90614062044961
C           -0.61969227341869        0.47231664640415        2.46252359605563
H           -2.27597824743597        1.72554721488248        2.51140576324154
H           -0.77669925759632        2.47958967466681        1.91965017997353
C           -0.01721422802561       -0.45942680601341        2.91170411917928
H            0.52303625949433       -1.25786109924229        3.32492562541117
Cl           1.10932799289014       -0.24121739882718       -2.91586226357824
Cl           1.35247116825385        2.47550765468146       -1.70206612913202
O            1.49836171656654        0.20159685145750        0.15133755313728
O           -0.54712368913098       -0.87979774009150       -0.97675645172965
C            1.93631941969107       -2.05343643546551       -0.22238965396514
C            0.64303295086670       -2.44284301515883        0.30273842641223
C           -1.75084329853332       -2.32825934437014        0.36915555267803
C            3.66356703149035       -0.40398306093476       -0.50675682498224
C            4.33370386927280       -1.27974126297573       -1.40188326050653
C            2.75522556813196       -3.01624954052501       -0.82682831851547
C            3.86892872353848       -2.61751395154964       -1.51054598221681
C            0.61399368922106       -3.45726493319654        1.27517436169669
C           -0.52780665214243       -3.68845549466156        1.98226950004912
C           -1.74345079213364       -3.06937465967075        1.58259145901543
H            2.40547643980210       -4.03534132796472       -0.86745749345740
H            4.41005145309764       -3.30800831261559       -2.13674584039779
H            1.54426944442271       -3.93761597241646        1.53431667757631
H           -0.53343260410714       -4.34263532740207        2.83931352142590
N            2.40338625770967       -0.78865167056448       -0.10574348924565
N           -0.52935277437951       -1.88859036419674       -0.08904267778632
C           -2.98776437921132       -2.04821026870513       -0.26816812983712
C           -2.92320501580845       -3.20782039396125        2.31543429536584
H           -2.90563627842168       -3.75028086504332        3.24759924356591
C           -4.11110905564803       -2.12498557012266        0.54987245350963
C           -4.07999916626964       -2.63105719366088        1.84251090457936
H           -4.98330562383586       -2.64849065032471        2.43251923573801
C            4.27648107375486        0.79394901304798       -0.08572178191684
C            5.44154774802921       -0.80919900897970       -2.11135148441852
H            5.93606478196090       -1.46362071496012       -2.81190493804376
C            5.86195856425068        0.48624554506991       -1.91852410389317
H            6.66166432521071        0.89542219689447       -2.51628115630296
C            5.32426254025183        1.24109061587629       -0.88398397060046
H            5.75926609939592        2.20591578584640       -0.68674387113786
H           -5.06331696208478       -1.80687935930573        0.16003632386596
C            4.00729646113781        1.48848320746779        1.24999095316098
C            3.02832573614485        2.66034174246458        1.13642188052241
H            3.30806561283594        3.31560935289864        0.31624968216504
H            2.02079522180651        2.30593662653603        0.95526998730345
H            3.03356727257672        3.22933987205851        2.06390729154935
C            3.49726388012488        0.48220832423124        2.29352084620948
H            4.11569177915000       -0.41494916674758        2.29842153325056
H            3.54431577060209        0.93323461904721        3.28247801859964
H            2.46269782254223        0.20986207449923        2.11868323186766
C            5.34107863445402        2.04235690237685        1.78882800289486
H            6.12837978782294        1.29306733552318        1.73405571965278
H            5.65796853823032        2.92801888804349        1.24645601012813
H            5.21526245829438        2.33012882382688        2.83011068039659
C           -3.19248922713906       -1.88956807802970       -1.77823663565773
C           -4.55510848426697       -2.50221625916834       -2.16069979864085
H           -4.68384892187690       -3.48543408866279       -1.71272900507684
H           -5.38504727404754       -1.86589015318104       -1.86591498507894
H           -4.60451564690183       -2.61128460563650       -3.24139677159102
C           -3.20662687042082       -0.43039153372099       -2.24837952616704
H           -3.94629705029222        0.14547886508138       -1.69561949429907
H           -2.23729156061705        0.03721310017480       -2.12234497590083
H           -3.46103607358341       -0.39582165920058       -3.30514400911856
C           -2.13019208138983       -2.69032195619021       -2.54879215686946
H           -2.42804746984250       -2.77669960858392       -3.59100263058414
H           -1.16240800823881       -2.20419321899838       -2.53642707729814
H           -2.03636969687087       -3.69472038093615       -2.13720090635808
