81
 energy: -124.857768431642 gnorm: 0.000741162328 xtb: 6.5.1 (b24c23e)
Si          -0.11705223573254        0.43683803081073        0.12950128745968
O            0.26776521080329        2.00143036182489        0.29206711950751
C            1.03855199576234        2.90570883167551       -0.47561838930170
C            2.48750805970585        2.81445610064908       -0.06737230531852
H            0.94203764390987        2.65492544598946       -1.53669551967884
C            2.86105009220049        3.11666015407415        1.23687143246329
C            3.45874593015192        2.43226938658524       -0.98147938259033
C            4.19049590331473        3.06162951688359        1.61334722459585
H            2.10381297729075        3.38671613114204        1.95698402376432
C            4.78877295852495        2.37055919947569       -0.60147143861086
H            3.17129381555766        2.17541333034050       -1.98974039426274
C            5.15849826270206        2.69357468360960        0.69297400663380
H            4.47291427026023        3.30341748239320        2.62745868921200
H            5.53751257986433        2.07033968027882       -1.32019481652398
H            6.19745677371748        2.65185232690980        0.98701150134525
C            0.48783004958793        4.32547609800064       -0.22359575354702
C           -0.46833924512828        4.73028264932422       -1.22941804870305
H            1.31758518284066        5.03787930339752       -0.22018133752339
H            0.01047217781526        4.33437210300290        0.75877333069994
C           -1.23260421376691        5.07050834452112       -2.08497636111913
H           -1.91136703095691        5.36948186040396       -2.82634093419058
Cl           0.91891040071868        0.20728318773819       -1.81822983859650
Cl          -1.06252143515054        0.59795419032700        2.05177769774414
O            0.56373937270370       -1.02018106181964        0.71910143976903
O           -1.51813923017910       -0.13841416757842       -0.66833957089479
C           -0.42749645645016       -2.67167891039152       -0.56107200869444
C           -1.72393729537962       -2.34328799783037        0.00750661955286
C           -3.47591610127031       -0.76413422171463        0.49363340542701
C            1.96443812458085       -2.40140906210771       -0.58276766063710
C            2.00986830765448       -3.14337623931842       -1.79675203407153
C           -0.34039312379719       -3.64585819615179       -1.56035889889211
C            0.83523591978278       -3.80697552444575       -2.23765907169934
C           -2.42808555874831       -3.35523954776460        0.66842210734252
C           -3.49961761298498       -3.02338068450890        1.44577046701369
C           -4.00486581907794       -1.69730632206253        1.43239345798685
H           -1.24348217866972       -4.14936463761288       -1.86650607100657
H            0.88733455046421       -4.42654098564484       -3.11835676544271
H           -2.02027722807704       -4.35343819748239        0.66038920900532
H           -3.96395985171180       -3.75087075478621        2.09159859097503
N            0.71212912418785       -2.09232446965435       -0.11011082408408
N           -2.27481711968388       -1.10692684127149       -0.08240479829148
C           -4.18710212130562        0.43047059256253        0.22971572473845
C           -5.02509966440820       -1.30822300649467        2.30343615907983
H           -5.40076918793688       -2.01867081428123        3.02299199760341
C           -5.12249189482748        0.79728962192621        1.19188592370499
C           -5.50439791156115       -0.02250293841967        2.24445777509035
H           -6.22831019673646        0.32974389608825        2.96263052440187
C            3.16749122543355       -2.01465120221503        0.05020601105235
C            3.20657442808947       -3.21936055130067       -2.51388984375630
H            3.22790192856214       -3.76273476148511       -3.44561273004354
C            4.32086409819033       -2.57464627783093       -2.03301287706963
H            5.23166376490706       -2.54735996690921       -2.61104599875519
C            4.30228287412968       -2.03533169581639       -0.75358755469409
H            5.22438468583211       -1.63592237299552       -0.36723040900252
H           -5.60087598117103        1.75817296427755        1.11388047408091
C            3.33812925392966       -1.74563791526660        1.54670960828966
C            3.23152916067213       -0.25527602568548        1.88334378035408
H            3.89248426420944        0.32029038589905        1.24052341677745
H            2.22115467075211        0.11354885897130        1.75356899931798
H            3.52036995668718       -0.09074641210313        2.91895587873532
C            2.33562069704224       -2.56848936627183        2.37157327103692
H            2.32774600611939       -3.60514728345287        2.03675659024644
H            2.62959109659080       -2.55155780913407        3.41854684911155
H            1.33158397029493       -2.16607419722962        2.31790899295088
C            4.74034022299763       -2.21405066522672        1.98551352784292
H            4.95527154211984       -3.21296970944917        1.61170493673296
H            5.51884510083301       -1.53435300053340        1.65097321174781
H            4.78365985761532       -2.23982482275750        3.07179814965434
C           -4.13185948018586        1.25149198545956       -1.06046440193720
C           -5.51890491301800        1.87205363387865       -1.32799316516951
H           -6.30933714992359        1.13344519679054       -1.21188289371455
H           -5.72167940736658        2.71555199719792       -0.67440962271096
H           -5.54986204234822        2.24532962924379       -2.34895242201292
C           -3.12927213774536        2.40594037839528       -0.96835060798949
H           -3.29371135453399        2.97910973737865       -0.05914050341057
H           -2.10745179322916        2.05017455919679       -0.96386226173114
H           -3.24900561664499        3.06719454639014       -1.82249814945604
C           -3.83448050742469        0.35402602411555       -2.27203903383814
H           -4.01211772035282        0.91285175626838       -3.18809826447778
H           -2.80450591356659        0.02218928488697       -2.29717880952071
H           -4.49212675815581       -0.51453883133545       -2.26943564004899
