81
 energy: -124.857823451425 gnorm: 0.000426779182 xtb: 6.5.1 (b24c23e)
Si          -0.66067708107984       -0.37093833014259        0.99363420083766
O           -0.22243198333288        1.16744861256310        1.24609408728318
C            0.73424554876377        1.72240258116851        2.11304689045165
C            2.02134051318481        1.97956883453468        1.37129316056400
H            0.91643199107020        1.03423565554136        2.94725301498131
C            1.99219570091415        2.33103195944417        0.02852293740533
C            3.24117245559233        1.90295985854566        2.02903521460432
C            3.16519158673215        2.62107459060082       -0.64367621119541
H            1.04095626698243        2.37045784919072       -0.48093366406470
C            4.41392146699718        2.19644781042572        1.35635402306266
H            3.26786642422762        1.61315451998516        3.06942470092322
C            4.37755441577841        2.56424074901787        0.02219862928178
H            3.13340941030211        2.89791393942428       -1.68755571396619
H            5.35951983866376        2.14077297390611        1.87615074516101
H            5.29299217913097        2.80570911945336       -0.49765744459107
C            0.16935833027335        3.04554132821166        2.66574105437795
C           -0.99261145804194        2.79221250857332        3.48996308722451
H            0.94344880250725        3.54370037294716        3.25502709726381
H           -0.10810587019472        3.68588763714263        1.82480500132240
C           -1.94888943229755        2.52972048961911        4.15892481934434
H           -2.78818662523277        2.31651028445272        4.75024757775478
Cl           0.22037543521446       -1.25898412742199        2.74540269247881
Cl          -2.53709046356927       -1.11628752901756        1.59902361711665
O           -1.40343986256825        0.25641115424669       -0.51392623761897
O            0.43383400163547       -1.36671620348177        0.13171697292019
C           -1.53673399012031       -1.52706509158313       -1.93874857447805
C           -0.11439287957186       -1.39944591834325       -2.16566569522437
C            2.16278073965048       -1.11573324994361       -1.44974475218641
C           -3.55602154834776       -0.52810664077729       -1.10913760544224
C           -4.25119944239258       -1.72037616286413       -1.46540619942255
C           -2.26227787854836       -2.56395172850657       -2.53792738012242
C           -3.57811114638092       -2.71841381924980       -2.21815321621659
C            0.28685755212372       -1.27135167316848       -3.50433143466016
C            1.52171351929248       -0.77106199884360       -3.78976277224419
C            2.47266761532747       -0.60538698532698       -2.74684406678801
H           -1.73176547363948       -3.28815595054850       -3.13497645063299
H           -4.12861031512757       -3.59051833570241       -2.53244813458812
H           -0.45179190839690       -1.42575817204155       -4.27421400292796
H            1.79714916859141       -0.50094597499718       -4.79603013884939
N           -2.18796481080648       -0.57471892047040       -1.23240119019018
N            0.81706893205170       -1.31205573352927       -1.18212817822004
C            3.22730386551122       -1.35825618536811       -0.55329564914349
C            3.71522394392748       -0.02401119586798       -2.99630514294815
H            3.92456940323187        0.36761564921075       -3.97954596103259
C            4.40502710850129       -0.65391462778850       -0.81143135566024
C            4.63948605034640        0.04999180442027       -1.97884166532662
H            5.57338944063644        0.57115978978276       -2.11805270409546
C           -4.29100317390172        0.59623077000614       -0.65991001281584
C           -5.58726910111859       -1.88617343396086       -1.09072965480755
H           -6.09341077177917       -2.80429061161618       -1.34537564754333
C           -6.21744073189828       -0.89020858882370       -0.38722296770040
H           -7.22164802458265       -1.02728686838993       -0.01740299302232
C           -5.58697016785116        0.33763131312418       -0.23160336431058
H           -6.15294072132520        1.12949783708827        0.22788600920553
H            5.19402905903600       -0.68509787432991       -0.07841539888524
C           -3.83997655277509        2.05537186170886       -0.73751339297921
C           -3.19328263491612        2.51765258776464        0.57226466325380
H           -3.83769109494839        2.28312027983039        1.41589421248267
H           -2.23845938945622        2.03433270880890        0.73046925860774
H           -3.03631071026865        3.59384775617224        0.54561236933554
C           -2.88966833422017        2.27709670678017       -1.92408646416335
H           -3.30479111321245        1.83954451700621       -2.83147621633467
H           -2.75905870019815        3.34428653522845       -2.08988266011985
H           -1.90918036872068        1.85701186698131       -1.73942451363228
C           -5.06437780003089        2.95615059751958       -0.99776988513045
H           -5.67881311111301        2.56178756314484       -1.80468720619115
H           -5.67881735922116        3.07596153214638       -0.11016167720656
H           -4.72213957271782        3.94810831666581       -1.28393368135340
C            3.33134515386543       -2.43983269858458        0.52315755064204
C            4.59305000401187       -3.26815137592847        0.18871943828196
H            4.51765941027015       -3.68629901305550       -0.81352850839269
H            5.50753405802159       -2.68717894690106        0.24800259944231
H            4.68012794076700       -4.08867386861539        0.89690002270579
C            3.49662665605877       -1.81438289040663        1.91012613153051
H            4.35245895140704       -1.14457543656591        1.94155880585848
H            2.60757035442321       -1.25482486743418        2.17909666862675
H            3.63922670378632       -2.59672915397437        2.65109872424856
C            2.17705075720115       -3.44723954240556        0.53681210254984
H            2.49219718438925       -4.34246328659469        1.06813040024816
H            1.30982190210919       -3.05685830221469        1.05208463374446
H            1.89916276139623       -3.73791850759771       -0.47534832868433
