81
 energy: -124.859200204414 gnorm: 0.000339039709 xtb: 6.5.1 (b24c23e)
Si           0.03942967488785       -0.81161339111102        0.54156390153802
O           -1.25964075360738       -0.59592145637666       -0.42813972819208
C           -1.78476057110724       -1.34722473468806       -1.50123378610168
C           -3.03492267604383       -2.06516511421694       -1.06018437298702
H           -1.04086900503581       -2.08314760581283       -1.82435247185394
C           -4.12352929225574       -1.34927718044873       -0.57976250101069
C           -3.09806696167651       -3.45104742452143       -1.10026660446547
C           -5.26166091178243       -2.00906966942736       -0.15297562935388
H           -4.07021927531109       -0.27220264124693       -0.52950695438227
C           -4.23917250494381       -4.11009971478273       -0.67661696736719
H           -2.24498627914551       -4.01238251964203       -1.45120747116217
C           -5.32364716686532       -3.39128593839480       -0.20407717962290
H           -6.10390303376655       -1.44395566950387        0.22106521180521
H           -4.27851601734481       -5.18883668782795       -0.70974355734961
H           -6.21258135236272       -3.90631767091973        0.12967837895065
C           -2.06169538631668       -0.37899264269573       -2.66595717282646
C           -0.83001372748746        0.24759533554690       -3.09310002932282
H           -2.50023817593613       -0.94192945986679       -3.49366156398761
H           -2.76811093942754        0.39014802466656       -2.34453562089574
C            0.21736094912571        0.74599901131478       -3.38715544404309
H            1.12753555184320        1.17722834968909       -3.67908678507852
Cl           0.29900934613007       -1.29702097865067        2.54746690322050
Cl           0.41543160362094       -2.83884375803574       -0.06750608293105
O            1.49188856404824       -0.34650907002935       -0.23035207142816
O           -0.28594910387031        0.81896089506111        1.20658525727968
C            1.92009582898869        1.91848220350834        0.25897810865485
C            0.62164107538512        2.34908697877085       -0.22233468044148
C           -1.76186606782529        2.25499448719754        0.01311567543404
C            3.59479433705761        0.24287344982389        0.63279145431450
C            4.20904059392521        1.10113848387374        1.59074234476402
C            2.73136006871697        2.87107089992275        0.88824917184796
C            3.78526292161955        2.45509227378036        1.65183144463449
C            0.52096714959589        3.32715278397615       -1.21484518536904
C           -0.70017808178448        3.56927504213415       -1.77261663644937
C           -1.86717254334275        2.99631743039623       -1.20215373854446
H            2.40894412066829        3.89990767808273        0.88144713033811
H            4.31081360356476        3.13994199430537        2.29688909534440
H            1.42505968349138        3.76918718758460       -1.60169279562010
H           -0.80309367638909        4.19384785801356       -2.64495810617668
N            2.34820527690641        0.63695561485540        0.17461124207398
N           -0.49549362036013        1.84324058786180        0.34640338806251
C           -2.93316104889598        2.00589937185538        0.77103733073449
C           -3.11667173835916        3.18460645595445       -1.79956655328341
H           -3.17609415447394        3.72062824835289       -2.73390256980302
C           -4.13778923573796        2.14758605789254        0.08800776893355
C           -4.23858805052189        2.66940175068141       -1.19515533329117
H           -5.20344512563654        2.73352929562969       -1.67454830590932
C            4.26373267056091       -0.93197850910563        0.23450311759686
C            5.24507543826482        0.61434293082076        2.38960011996852
H            5.68778508923146        1.26121106749419        3.13062092657374
C            5.66736467359119       -0.68609449063408        2.22472733478655
H            6.40148552195165       -1.11345894140232        2.88989901295621
C            5.22651107468518       -1.40641213233859        1.12641284057154
H            5.67450984285556       -2.36901076202905        0.94029929677350
H           -5.05331193877016        1.86702132918495        0.58077529291949
C            4.22181029191311       -1.59749843355618       -1.14095017939174
C            3.75038489567918       -3.05038299023615       -1.05167290411140
H            4.37292149070835       -3.62733072199548       -0.37310078639410
H            2.72453763168777       -3.09745908889176       -0.70176181287761
H            3.79779024727351       -3.51190305186361       -2.03519781465603
C            3.38724121224037       -0.85263109520703       -2.18728606474455
H            3.60957385978367        0.21399746589445       -2.17381399933843
H            3.63521360537743       -1.23599082623135       -3.17510554399106
H            2.32485512363851       -1.00270073502397       -2.03728137039595
C            5.67510557977883       -1.56743809425487       -1.66585685465819
H            6.04685817065589       -0.54461709531498       -1.70145594811019
H            6.35016460449785       -2.15341113686092       -1.05045309779995
H            5.70389867424200       -1.97850601517650       -2.67231393507394
C           -3.00156791237682        1.74899885824519        2.27710907734913
C           -4.28128815445003        2.39429168130786        2.84817979288357
H           -4.39901622650302        3.41590384542387        2.49193795067606
H           -5.17452222600525        1.82741586580695        2.60085309557505
H           -4.21231722008625        2.41800508723813        3.93302658405280
C           -3.05639135010498        0.25112106789053        2.59249950196433
H           -3.90249736553123       -0.21567581891920        2.09289416926904
H           -2.15310777014382       -0.24866709181835        2.26930310621423
H           -3.16053571438424        0.10577422701049        3.66503952252549
C           -1.82882099742027        2.41831428076980        3.00908451734391
H           -2.02306011171831        2.41897536854029        4.07905254555061
H           -0.89860706908146        1.88650633453853        2.85560642044876
H           -1.71544951398546        3.45160419812525        2.68234517687936
