81
 energy: -124.772299576299 gnorm: 0.000471589168 xtb: 6.5.1 (b24c23e)
Si           0.25759171470900       -0.84138774801694       -0.19617792717679
O           -2.09794170062173       -1.47654910433065       -0.35660669992874
C           -2.53016134061202       -2.42444462784616       -0.97380430811012
C           -3.88890303194371       -2.49250366151279       -1.50540987623595
H           -1.89715016954940       -3.30215787860658       -1.17785760993871
C           -4.70954434203409       -1.36325236162220       -1.45830338915356
C           -4.37070643947763       -3.67572986868292       -2.06557291959892
C           -5.99417339659721       -1.42201166374216       -1.96007372152236
H           -4.30903967982733       -0.45192997866201       -1.03868686075263
C           -5.65998195852162       -3.72894788860864       -2.55902839279066
H           -3.72997100195385       -4.54426230782955       -2.10536797924973
C           -6.47108568606117       -2.60478204704761       -2.50612897342347
H           -6.62814703629860       -0.54823108441665       -1.92975501081077
H           -6.03670281091613       -4.64476308014066       -2.98962091862415
H           -7.47727035863270       -2.65047732421840       -2.89627696557851
C            1.52108942246070       -0.86115100073232        3.51022075096434
C            0.90468854181787       -1.39322956725328        2.50007061593143
H            2.58015650760087       -0.99587839710435        3.66419824936664
H            0.99395622619000       -0.29156390210739        4.25882707396048
C            0.31752412796224       -1.84695196795088        1.44192403018116
H           -0.10774223069307       -2.83864612869792        1.44327564758622
Cl          -0.51860886783594        0.14096085259994       -1.99890945934889
Cl           0.62139070675986       -2.60560673012726       -1.36006918629699
O           -0.33611251230533        0.46245266388663        0.82111066001411
O            1.87611960404122       -0.27723316959652       -0.40087996814553
C            0.65672513571607        2.32989713370114       -0.05598087293133
C            1.92257207677987        1.89530981644820        0.51998097116894
C            3.69714317937154        0.33924123663603        0.92647832515367
C           -1.73214835575974        2.17941421608033        0.01425486872701
C           -1.80180337012496        3.10813130208930       -1.06024593942284
C            0.58465535138928        3.44244850525339       -0.89575553211832
C           -0.61075928508816        3.75068585127539       -1.48574637456981
C            2.52034873775534        2.80427644035841        1.40108482158938
C            3.49282042752797        2.37624912409259        2.26012058157498
C            4.06755436836701        1.09271009564541        2.07805008820231
H            1.49742699978988        3.95007373444174       -1.16410739117732
H           -0.66744954146665        4.48556914424311       -2.27242997693199
H            2.08969161639280        3.78939618399165        1.48414087478527
H            3.83958996433656        2.99902497671683        3.06826535896810
N           -0.48044651577528        1.71579438529270        0.33207804751015
N            2.49591509732887        0.68385392747960        0.32672539432581
C            4.54510962005271       -0.70348481572187        0.49538832653265
C            5.02303108608679        0.58788157967449        2.96310696521594
H            5.27316215422281        1.15477626515051        3.84639886530517
C            5.41335684453925       -1.21624881631327        1.45882803182172
C            5.61001220938463       -0.62877306149312        2.69822977867561
H            6.28343924193001       -1.08221208810132        3.40932263518341
C           -2.90837695312603        1.78131737717521        0.68733044533074
C           -3.04116100916575        3.37970161623628       -1.64892713010653
H           -3.08908817959969        4.05906897816815       -2.48560244787467
C           -4.16809167401751        2.76095272011595       -1.16405055550873
H           -5.12144025132969        2.90089140694428       -1.65095330111717
C           -4.10012628798687        2.02813624896512        0.01550223561644
H           -5.02496349551275        1.66393554572151        0.43201008826389
H            5.98451139636707       -2.09891231528426        1.22512870054501
C           -2.96373925369952        1.28491800297021        2.13267626076081
C           -3.00688171856465       -0.24285404408363        2.22165584160248
H           -3.85584779250050       -0.63350480107334        1.66468984180557
H           -2.09920417973333       -0.67410611842794        1.81606396209369
H           -3.10370362227178       -0.54673039901205        3.26188038087100
C           -1.77587433101066        1.82067642196015        2.94700286649101
H           -1.63896584208161        2.88752002272947        2.77364681247689
H           -1.96905857656171        1.67177294432661        4.00731975178050
H           -0.85885051432802        1.29431097507433        2.71079539031289
C           -4.23736729304808        1.83762216277486        2.80296804270383
H           -4.34432711766079        2.90496942275264        2.61974077178286
H           -5.13341920061601        1.32938827205822        2.45780531392630
H           -4.17472637071408        1.68010748756247        3.87726606967042
C            4.72936398337641       -1.19427579381864       -0.93963406142021
C            6.24468842727752       -1.32814771107262       -1.20511863349163
H            6.77232749855571       -0.42462969978776       -0.90525030460449
H            6.68337691573275       -2.17538700587969       -0.68702589812276
H            6.40919399699608       -1.48357865510592       -2.26862944805948
C            4.07942283770270       -2.56431236991352       -1.13810010207803
H            4.47363551329997       -3.28352062783283       -0.42356287479728
H            3.00621728351098       -2.50240803571071       -1.00581784754441
H            4.27935780241515       -2.92746308271113       -2.14311538036917
C            4.20844329690935       -0.19263956675793       -1.97893777237978
H            4.60180130132832       -0.45336029370638       -2.95881009401876
H            3.12878388302917       -0.21054954581055       -2.05461263855594
H            4.53888819662083        0.81768429587622       -1.73896499503068
