61
 energy: -107.993942849204 gnorm: 0.000611075088 xtb: 6.5.1 (b24c23e)
Si           0.10051764471438       -0.22742615461075        0.27334533632488
O            1.18839334444439       -1.35052002521582        0.68338635515253
C            1.73103720571147       -2.49018226876895        0.06458459740714
C            3.17255645105728       -2.23413710092837       -0.29736337520922
H            1.15595495925100       -2.73700674328826       -0.83470842536866
C            3.95632282025895       -1.39435545795000        0.48238910165642
C            3.73727528632194       -2.87291710850193       -1.39437032016125
C            5.28867704114708       -1.19398662747927        0.16619523238333
H            3.50913770768810       -0.88797666200019        1.32328657389579
C            5.07075837307648       -2.67334255959589       -1.70708840890693
H            3.12644812469262       -3.52292106238353       -2.00536337675151
C            5.84914469151648       -1.83389082139074       -0.92637013621159
H            5.89055307274971       -0.53572141010728        0.77506002158815
H            5.50196443583032       -3.17102629505080       -2.56394897172060
H            6.88923109670971       -1.67759924741906       -1.17319613280027
C            1.66395195031907       -3.67340871864834        1.05399494225988
C            0.35659603040434       -4.28899990893881        1.06494182568537
H            2.41042839360299       -4.41886818872094        0.76570968869491
H            1.91076596425802       -3.29484580957455        2.04877417497895
C           -0.72871505907203       -4.79159728289012        1.03813489847266
H           -1.67868298942461       -5.23427904720362        1.02621969775075
Cl           0.84032620491582        0.88553709713326        1.95467611266502
Cl          -0.74567287543439       -1.37769177060313       -1.38657043320020
O            0.28375460113119        1.05484634306796       -0.85680916867708
O           -1.46304515401590        0.18454236200828        0.87627529292939
C           -1.32027024114186        2.65500229122631       -0.33688301674606
C           -2.39644871855974        1.72646503610436       -0.57960981087592
C           -3.45978985786644       -0.39500208884438       -0.21014526447702
C            1.01892556000636        3.17350198411464       -0.18084900956856
C            0.70974443547406        4.47237487156298        0.29680381508763
C           -1.63281037391542        3.98419572814705        0.00357643420352
C           -0.65535876630457        4.86292079815602        0.35741130704980
C           -3.46561293099878        2.11423433206895       -1.40839671922827
C           -4.46138024053277        1.23980591178423       -1.71895847957453
C           -4.47998223615426       -0.05616297604996       -1.13537960004766
H           -2.67387291961952        4.25828491551124        0.06624962222208
H           -0.89925491918883        5.85713365847647        0.69627406056929
H           -3.42788993038190        3.09441550553189       -1.85637067043909
H           -5.24251364733107        1.51083712470053       -2.41128324267416
N           -0.00793995115244        2.31737303287747       -0.45372386310530
N           -2.45400084223171        0.50064761395531        0.00680168274820
C           -3.52953990273262       -1.62823820229472        0.47402079039450
C           -5.48467234822094       -0.98356689600471       -1.42855654299764
H           -6.24270263480310       -0.71651372152320       -2.14879836008590
C           -4.55052209246356       -2.51888860129016        0.15133131089387
C           -5.50648452462562       -2.21199346072695       -0.80423940185863
H           -6.27742196427955       -2.92882492201450       -1.04160355542586
C            2.36910777904033        2.81848776858041       -0.38779111779312
C            1.74374117597688        5.33796932803403        0.66635668987908
H            1.49050126832475        6.31612656862698        1.04527458702798
C            3.05982156447721        4.94746550037798        0.54466460921050
H            3.85427064839446        5.61216098971213        0.84687498789924
C            3.36622136735826        3.71035252552274        0.00005845387864
H            4.39490688049373        3.41775958096266       -0.14488854850125
H           -4.58678517912235       -3.46304276321644        0.67299953082624
C           -2.64246074009610       -1.99685906419118        1.50917864767557
C            2.77390135420590        1.63329736943561       -1.04138833136828
C            3.24713816924512        0.71496256596199       -1.65506759098355
H            3.59353362454795       -0.12339975857773       -2.18090509713820
C           -1.98168116237301       -2.41048277436105        2.42344951868440
H           -1.35484802530683       -2.71307930327344        3.20706907180743
