61
 energy: -107.994328738721 gnorm: 0.000868458979 xtb: 6.5.1 (b24c23e)
Si           0.23791643522823        0.12363860186622        1.27432294771088
O            0.52750501581563       -1.39841700914674        0.80590030300871
C            0.84876230223810       -2.02568257341695       -0.40877387626740
C            1.71004430465352       -3.23469047881452       -0.12652980942214
H            1.38989244023004       -1.32296322204964       -1.05085200987565
C            1.74880255003014       -3.80313517356847        1.13860674849743
C            2.46278073521131       -3.79859114802396       -1.15098966157312
C            2.53069484012300       -4.92078234272263        1.37628277412746
H            1.17712452459032       -3.34833660145850        1.93203780788177
C            3.24077850432446       -4.91721499560790       -0.91212984357747
H            2.44308676034703       -3.35048934445532       -2.13531842531810
C            3.27523174932015       -5.48162003276376        0.35282304465643
H            2.55891473475609       -5.35367355870381        2.36534461322007
H            3.82517974822162       -5.34657540977660       -1.71309578666607
H            3.88525996271163       -6.35335438997460        0.53912273649860
C           -0.44207551593622       -2.47506795289329       -1.13420065407417
C           -0.99638256426365       -1.42129701927592       -1.95166224967300
H           -0.21243876228115       -3.33181854494672       -1.77362668544915
H           -1.16641912216040       -2.78231388004838       -0.37587055748877
C           -1.41926753177814       -0.54761934901790       -2.65231286263794
H           -1.80197682493917        0.21410128847688       -3.26354129063280
Cl           1.51378840188487        1.59232221346191        2.11252237620696
Cl          -0.25434735483673       -0.55032812955000        3.20518885886976
O            0.66926286414640        0.76744588386429       -0.39084323982729
O           -1.38201587189723        0.64292979025074        1.10803147130041
C           -0.42988379913838        2.78037335454503       -0.63164119088530
C           -1.70381690261276        2.12968957751967       -0.70798814612869
C           -3.24162056342609        0.32791993378758       -0.27270343469471
C            1.96686363770071        2.69813840576003       -0.64949324456761
C            2.02637557477744        4.10788657645074       -0.79999084482847
C           -0.37453237123022        4.18978537822369       -0.73697438472550
C            0.81133007357461        4.84270216517603       -0.80312480353014
C           -2.64472053171009        2.69433133870230       -1.59944987868097
C           -3.84158954527163        2.10500187799590       -1.84079702239166
C           -4.16368562581065        0.87627341099323       -1.20324908541302
H           -1.30031626351915        4.74027218829765       -0.70117506037440
H            0.85268910154567        5.91951157902349       -0.84667754706241
H           -2.35807179055884        3.57996226677172       -2.14252333371979
H           -4.54305033407263        2.53110131919527       -2.54026575257963
N            0.74146821789658        2.09448821143350       -0.56863522007506
N           -2.07332262013257        1.01040736130800       -0.01363187874452
C           -3.58427112216852       -0.89129865426529        0.35111819838375
C           -5.36442852387832        0.22411726513573       -1.49216445858341
H           -6.03682995457979        0.67441596762711       -2.20609587719043
C           -4.79609959271005       -1.51018145048629        0.03445235353266
C           -5.68297608725030       -0.96563303273931       -0.87501641412573
H           -6.61158095989022       -1.46840996423368       -1.09598550608768
C            3.18275674846802        1.97755271668185       -0.60436578763497
C            3.25946762688303        4.75671036000292       -0.91829189267612
H            3.26922469772180        5.83047915699820       -1.02602551719154
C            4.43327392568436        4.03879975501809       -0.89594251396623
H            5.38440440311676        4.53913665330890       -0.99064757316552
C            4.38753399631462        2.66281011898896       -0.73737071354461
H            5.30128088966077        2.08934928491677       -0.70218666397151
H           -5.02637497692557       -2.44250051439193        0.52725673360743
C           -2.79004064918954       -1.58753009852972        1.28806104112211
C            3.29270961216210        0.58462609266185       -0.39874942275518
C            3.60897475039784       -0.55829261197194       -0.20129350660192
H            3.78237442193792       -1.57660598262985       -0.01549600907243
C           -2.29027223113820       -2.35176494274163        2.07032072098548
H           -1.75331955836388       -2.91324968626043        2.77529090779041
