61
 energy: -108.001010984394 gnorm: 0.000841541791 xtb: 6.5.1 (b24c23e)
Si           0.01791312960942       -0.92694658576022       -0.03515315867959
O            1.25267266898521       -0.15175157984902        0.70655085487661
C            2.18770607969311       -0.63088090503487        1.64824161077041
C            3.10386511456948       -1.65901987532048        1.03707086601632
H            1.64437261587235       -1.08184575931247        2.48658969815793
C            3.66285124349571       -1.43528062031599       -0.21325060758469
C            3.38945181592433       -2.83775241916982        1.71118371065604
C            4.49519194500860       -2.37999663623127       -0.78522532423109
H            3.42334014523532       -0.53094384998326       -0.75123450717445
C            4.22757806693643       -3.77883195723731        1.14078488057577
H            2.93825212397200       -3.02387414382570        2.67416521889703
C            4.78238114912551       -3.55206942573544       -0.10750136937530
H            4.91604437957759       -2.19963478990272       -1.76349556578369
H            4.43942308329336       -4.69720569656409        1.66834870456461
H            5.43021367145749       -4.29183411690109       -0.55473046365925
C            2.99679479867663        0.57811864428457        2.15355896948227
C            2.15440629851212        1.48769331466724        2.89732588454025
H            3.80166444877339        0.21401905952436        2.79718297083393
H            3.43607673012294        1.09678605377533        1.29728689776300
C            1.41509216371143        2.20851296181396        3.50215935780439
H            0.78771017846210        2.84182219837265        4.05459681424778
Cl           0.32121938305452       -2.00482555438300       -1.74069336865731
Cl          -0.05798154405265       -2.60374321175194        1.29505321086982
O           -1.57039012332540       -0.65480518220935        0.52742960496080
O           -0.15270420469646        0.54980802959089       -1.12049016416136
C           -2.29509088326778        1.58462782294383        0.23031517962316
C           -0.99899360245037        2.18713015185921        0.26966488898634
C            1.23214406797765        2.34893392328161       -0.58076553828303
C           -3.76702542638688       -0.28255040570859       -0.16248934560471
C           -4.88961048113381        0.58565990148948       -0.15064213051897
C           -3.41894949346798        2.43985060776969        0.27828487325674
C           -4.67984820649085        1.96766458091005        0.11193949787800
C           -0.77533847370703        3.34534324128794        1.05041785836173
C            0.43640583576556        3.95330290682346        1.07070922237566
C            1.48396477708853        3.47815224411108        0.23671955216155
H           -3.24574255799280        3.49745848344599        0.39031361409465
H           -5.53105381918055        2.62921886551637        0.13776208227986
H           -1.57022604060296        3.68655021010889        1.69325232930806
H            0.62691561784759        4.79875363197005        1.71234170726828
N           -2.52002921521717        0.23929205508139        0.10464886907415
N            0.02360373131997        1.72134679670956       -0.49152398212000
C            2.23659287215183        1.91756658868207       -1.47832192773384
C            2.74052850612687        4.09054597073564        0.21448919530723
H            2.91549798294141        4.93701952425901        0.86026250167353
C            3.47384017923444        2.55621171615791       -1.46710613960294
C            3.73409324780049        3.62000465586692       -0.61600954655412
H            4.70724433199152        4.08634646132945       -0.62177324439314
C           -3.98215998572771       -1.65153575930477       -0.43318607167755
C           -6.17354563913805        0.08697042380610       -0.38477996985887
H           -7.00547046869026        0.77421873190918       -0.36611000219175
C           -6.37102822668237       -1.25526701224543       -0.62795024053104
H           -7.36440419963597       -1.63955343016193       -0.80014731149878
C           -5.28253123610247       -2.10836946762273       -0.65578079506265
H           -5.41794954461657       -3.15991912541225       -0.85770055247361
H            4.23470572872258        2.20637392080091       -2.14892262756300
C            2.04363570355413        0.88888386485544       -2.42625670791299
C           -2.96138413874303       -2.62091673729742       -0.53480320562753
C           -2.23242162837197       -3.56377847639900       -0.69056636000295
H           -1.50423940162674       -4.31245112625557       -0.78753593223253
C            2.01919789985502        0.06024087001186       -3.29672653735385
H            1.91000782487554       -0.71035456384285       -3.99929192858086
