61
 energy: -107.905868730469 gnorm: 0.000865450979 xtb: 6.5.1 (b24c23e)
Si          -0.18101216278008       -0.37827385234254        0.41299433852232
O            2.21364307104851       -0.96954478505161       -0.00429360587176
C            2.54940075897328       -2.12973835351730        0.05884402180409
C            3.93799504048726       -2.58326832454629        0.00135475561737
H            1.79949502775214       -2.92903755452707        0.16397259368095
C            4.96601289034817       -1.66093349819380       -0.20550089093480
C            4.24183167575406       -3.93663708650787        0.14826611812981
C            6.27703936916681       -2.08968859382108       -0.26569978517010
H            4.70465686655743       -0.61895501992563       -0.31749042822497
C            5.55640404986231       -4.35815646368656        0.09170217408895
H            3.44238456850233       -4.64366862565488        0.31329797257756
C            6.57243813210020       -3.43697487740811       -0.11641884162639
H            7.07330623033613       -1.37820616772625       -0.42675980043923
H            5.79448617265927       -5.40482845184246        0.20955112742536
H            7.59869730342480       -3.77089821318607       -0.16128429342907
C           -1.65657768026210       -3.76042614072252       -1.07779676252841
C           -1.02074260048750       -2.63251425684631       -1.12718170521970
H           -1.14605972373238       -4.68769697035025       -0.87708986066270
H           -2.72084303389408       -3.82074173408537       -1.23847196781366
C           -0.40074642322909       -1.49789778717910       -1.12787239952566
H            0.01732956121552       -1.11213304486115       -2.04651930590829
Cl           0.85009505628875        0.85452567829541        1.80910853636734
Cl          -0.07478629563470       -2.02958761148196        1.78804204629059
O           -0.07453068596159        0.93372874746772       -0.84492458900051
O           -1.78698204084914        0.08736438597593        0.89979949466349
C           -1.40787609257188        2.67326180944435       -0.16333511520640
C           -2.56727304506792        1.85597433956223       -0.42293416186645
C           -3.76959295051540       -0.21229780368685       -0.31146649135779
C            0.95298576933545        2.97496993801524       -0.34396983195614
C            0.84472361601007        4.25918878491797        0.24641323039741
C           -1.54875034671743        3.99105702338663        0.30288717619116
C           -0.44935656401583        4.75056766996652        0.56564264613978
C           -3.58877682773104        2.40441839633348       -1.21605057375657
C           -4.60269869215715        1.62665714461613       -1.68645059369434
C           -4.70049092510970        0.27133974033137       -1.26877131577001
H           -2.54177920706338        4.34726439073723        0.52725390999260
H           -0.54243441144764        5.72951874826902        1.00830112367711
H           -3.48868965848137        3.43340315747882       -1.52355623168657
H           -5.33764324243463        2.01904877208922       -2.37056188771796
N           -0.17027116772362        2.21252154205529       -0.46281818191728
N           -2.69909981987616        0.57572459062304        0.02635483882213
C           -4.00402273309431       -1.47168485250896        0.28072507125798
C           -5.71804645361334       -0.56484923552496       -1.73561642452013
H           -6.40012127386523       -0.18398255417480       -2.48020115245110
C           -5.03098843397964       -2.27567338747439       -0.21780248293160
C           -5.85735420562547       -1.84535082324614       -1.24043190788638
H           -6.63431572322367       -2.49325751003562       -1.61636630379095
C            2.20626426701596        2.53773895017246       -0.82640723403758
C            2.00163548757945        5.01384259651850        0.46899023027481
H            1.90823083815844        5.97943047498536        0.94201238978566
C            3.23466783884987        4.53354850966004        0.08549599968176
H            4.12592795102014        5.11190321173798        0.27518389859071
C            3.32981940884732        3.32186885587984       -0.58292881393385
H            4.28681171679681        2.97223702585352       -0.93993682778126
H           -5.18013880664244       -3.24412418317579        0.23540083678706
C           -3.32234669168807       -1.94040471011783        1.42235886299644
C            2.36699252946975        1.38273638704772       -1.62221744946913
C            2.63444367032967        0.49037054998660       -2.38154402299239
H            2.80299406057661       -0.33615692443668       -3.00494741283012
C           -2.91251681821055       -2.42498999471539        2.44302664800754
H           -2.45218419082589       -2.79457602884068        3.30947061214610
