61
 energy: -107.992270155294 gnorm: 0.000787881766 xtb: 6.5.1 (b24c23e)
Si          -0.02036608241937       -0.52228132456350       -0.21612161106520
O            0.79245384035002       -1.92018743998085       -0.10396358483970
C            1.79746428919562       -2.37619532902997        0.77686492625379
C            3.13270623018261       -1.75544529694379        0.45122255928756
H            1.51193940061570       -2.12861420690729        1.80544307919867
C            3.61202233851331       -1.80769471739384       -0.85050621896543
C            3.90294978249414       -1.15364857794290        1.43564861739560
C            4.84708783376305       -1.26960200321848       -1.16314231329553
H            3.00305333565476       -2.26604097337642       -1.61531583710995
C            5.13338040630140       -0.60569266547741        1.11981015746561
H            3.53203329623963       -1.10216554687363        2.44826256746494
C            5.60931541062981       -0.66554144142538       -0.17855885928006
H            5.22023100534866       -1.32260892302756       -2.17558659816038
H            5.72173554782828       -0.13048328559342        1.89104742582207
H            6.57258319927037       -0.24171822382389       -0.42337592287805
C            1.90576898201931       -3.90470166374701        0.61644273194602
C            0.76371623777253       -4.61553597864622        1.14558130452922
H            2.81244520124985       -4.24163457259370        1.12789713887579
H            1.99558119318304       -4.13026424459903       -0.44852393059790
C           -0.17033221066993       -5.22366023978359        1.58140342907821
H           -0.99654053629522       -5.75184569182813        1.95408606479596
Cl           1.08302874651433        0.44714503760927        1.42205919467346
Cl          -1.06033996252304       -1.41573766793213       -1.85401133980540
O            0.11774454064177        0.87233868284403       -1.22424546641766
O           -1.43480551324431       -0.06193225766470        0.64644953115440
C           -1.26043350248271        2.51308965318452       -0.33142123704354
C           -2.42523952028533        1.68328236168263       -0.51878225303638
C           -3.56990207736791       -0.41078430633973       -0.25198793289394
C            1.11050982777754        2.85689215616131       -0.47038714243817
C            0.98308182043544        4.09635891840010        0.20542787243636
C           -1.41182198115581        3.80899455847686        0.19477843547436
C           -0.32395450226571        4.56659901891360        0.50763245336698
C           -3.55704457523367        2.21764558961449       -1.16038465383246
C           -4.63345427942052        1.43316983617299       -1.44311129595755
C           -4.66259757587365        0.07919397885206       -1.01161233945609
H           -2.40880323221046        4.14397879608174        0.43335131683840
H           -0.43510514296440        5.52282733250034        0.99362105813627
H           -3.51057481471558        3.24056254964031       -1.49885968581687
H           -5.47046201212571        1.82039354196399       -2.00201316453659
N           -0.00920986152198        2.10503474496235       -0.67292435655665
N           -2.49537296872364        0.40627862708038       -0.05670782827655
C           -3.63936663404806       -1.70714071975963        0.30253780382280
C           -5.74335031709512       -0.76347771186034       -1.29003873260484
H           -6.55907491142882       -0.38167760476760       -1.88447521511792
C           -4.73388004520195       -2.51151917823936       -0.00390747296243
C           -5.76512399493487       -2.05509813383132       -0.80994156871396
H           -6.59429329409312       -2.70634874571581       -1.03962656668583
C            2.38003597984632        2.44786389038192       -0.93309236986622
C            2.13256744454637        4.82501719854426        0.52713290465190
H            2.02374811212376        5.75716826643928        1.05998750905354
C            3.37970659187001        4.35860002070473        0.16966687689478
H            4.26464450300057        4.91281254578515        0.44216925353425
C            3.49829401595791        3.19680873164313       -0.57781244853330
H            4.46686672903189        2.85636690019837       -0.91061625966671
H           -4.76630814671264       -3.50745030481298        0.41050084861169
C           -2.68185576615703       -2.21728405457139        1.20720650181119
C            2.55607496747822        1.36463482159595       -1.82139981049341
C            2.79475151347958        0.53871806598699       -2.66069412014100
H            2.92830540926933       -0.21009286847503       -3.38204308928827
C           -1.97312990898320       -2.71651991543482        2.03879815002843
H           -1.29219036263284       -3.11122700919074        2.73124651375484
