61
 energy: -108.000388160796 gnorm: 0.000980767658 xtb: 6.5.1 (b24c23e)
Si           0.39657984296866       -1.29074820508860       -0.12724882015518
O           -1.14948760601908       -0.93479549024441       -0.49602844134721
C           -2.07563875655277       -1.36314492457933       -1.47005898516757
C           -2.71947285012801       -0.09369427643295       -1.98416647914748
H           -1.52946604668510       -1.85959781603668       -2.28390812829767
C           -4.04418672971163        0.24993405181777       -1.75891114403633
C           -1.89468432515624        0.81129431832993       -2.64628006591866
C           -4.53475633090743        1.47033606739811       -2.19457975240937
H           -4.70861304293497       -0.42604521628527       -1.24407910375502
C           -2.38097690700536        2.03244889653277       -3.07098598615907
H           -0.86236091485277        0.54407761300724       -2.82158373630876
C           -3.70680430316800        2.36568831786828       -2.84600444437279
H           -5.57068167932704        1.72106478468037       -2.01802140009143
H           -1.72775597133037        2.72394773182367       -3.58322045024240
H           -4.09211105598105        3.31767499777290       -3.18130185069377
C           -3.04635438758601       -2.36967715344600       -0.83984500162893
C           -2.33268195780390       -3.56315407679761       -0.43407216245128
H           -3.81377095635522       -2.63151680311385       -1.57277853135227
H           -3.51292223211254       -1.92300233371359        0.04260021998209
C           -1.70659273135632       -4.52410456854984       -0.09569948590845
H           -1.15184378746635       -5.36445490781913        0.19562158948366
Cl           0.87588149782581       -2.71207630875374        1.24203769360648
Cl           0.80260593012938       -2.41987305048129       -1.89610886704435
O            1.67748493145414       -0.30248381038063       -0.69107411932052
O            0.18086741575702       -0.11623142406935        1.29195883440263
C            1.65222327946495        1.88785576416150        0.19731093949707
C            0.22978710636219        1.97310278873989        0.32476628022960
C           -1.81900346321384        1.10029273445183        1.19803162077418
C            3.69801928282682        0.62508972410939        0.05142047779056
C            4.44753914102515        1.80140494643820        0.32087521207908
C            2.40292244816919        3.06608952856708        0.39720307535693
C            3.75836864971219        3.03885335005329        0.45217488784066
C           -0.45691498558141        3.11827034998302       -0.13757812032954
C           -1.79868844061153        3.23668868040656        0.01825612839964
C           -2.52260552838237        2.23161939753980        0.71397910623601
H            1.86581975071845        3.98331091264128        0.57522400144519
H            4.32821332975528        3.93690705367915        0.62936352684229
H            0.10218622702375        3.86039553984834       -0.68373600814836
H           -2.33547945945364        4.08095073281812       -0.38373760572852
N            2.32947742688379        0.72642070087837       -0.06058851821572
N           -0.47736074948018        1.00413254167528        0.96050744418068
C           -2.52927074589058        0.11399761969193        1.92108248863820
C           -3.90200831126438        2.33846109747277        0.91571286282606
H           -4.41404413886545        3.20564073136177        0.52854967514671
C           -3.90216652205658        0.26233355867427        2.09864542432530
C           -4.58824858429011        1.35681414730563        1.59473797147534
H           -5.65380213666313        1.43888038102519        1.74468106549431
C            4.39801427448007       -0.59094746335785       -0.10461466198743
C            5.83823546221676        1.74474969840632        0.44048692488050
H            6.37604968910045        2.65741430869784        0.64710911528782
C            6.50772799751414        0.54907883883334        0.29183987400597
H            7.58219289306410        0.50820475887767        0.38202737244144
C            5.78919446681419       -0.60097838547250        0.02124717158893
H            6.29600054128099       -1.54621948452290       -0.09863987333358
H           -4.42867855258912       -0.50322188852186        2.64933713219412
C           -1.92595347344897       -1.02652743244121        2.49351504238260
C            3.80246426492374       -1.84234017409989       -0.36951251696724
C            3.49063167594782       -2.98432835642818       -0.57601518461851
H            3.09559665846462       -3.93770794768067       -0.76193591574078
C           -1.56999297897431       -2.03661177435375        3.03869631689093
H           -1.15478954067425       -2.90182939288603        3.46113288516546
