61
 energy: -107.993000394200 gnorm: 0.000661604576 xtb: 6.5.1 (b24c23e)
Si           0.40799211458844       -0.80049662881442        0.82005797224959
O           -1.17969114844614       -0.80612256489277        0.41459634006325
C           -2.13839015687652       -1.83523009492047        0.43096123022588
C           -3.05195455143349       -1.75139083784433       -0.76472574070676
H           -1.62426302392707       -2.80339256515809        0.42087350144461
C           -3.29386806674676       -0.55250817939556       -1.41641895220240
C           -3.70063408129037       -2.90014607760104       -1.20482703442202
C           -4.16570909361793       -0.49632950829852       -2.48976439934397
H           -2.78799420932550        0.33721784301085       -1.08210941710827
C           -4.57673390088339       -2.84426474805924       -2.27271187374702
H           -3.50990280968541       -3.84038875889292       -0.70777493899158
C           -4.81255374508995       -1.64130761184654       -2.91870491504664
H           -4.34059924871762        0.44655672520948       -2.98838709964810
H           -5.07475673580134       -3.74285618379311       -2.60640415277886
H           -5.49520912649002       -1.59955300526176       -3.75472449296593
C           -2.96998467910018       -1.74396986036040        1.72967541084829
C           -2.15517511242080       -2.09622958907356        2.87181318631207
H           -3.81790665326615       -2.42962644203582        1.65377668662314
H           -3.34503992738084       -0.72338449665334        1.84047762504326
C           -1.43477134188903       -2.41838578348328        3.77090482105556
H           -0.80451898470592       -2.69050756786023        4.56374668819688
Cl           1.38079470535823       -0.65185484541382        2.63065114626644
Cl           0.67072009721084       -2.91653157768546        0.71494184622386
O            1.40768666482309       -0.62694354548804       -0.57870276117370
O            0.29629348972936        1.00618713435986        0.99328091091930
C            1.70875689103428        1.63679917609520       -1.18630540806625
C            0.31556292443656        1.97170200395242       -1.08789766484908
C           -1.64465870005948        2.11908813705170        0.27400734202663
C            3.59051399882759        0.19507022707563       -0.83957032774846
C            4.47273376700173        1.29321341579888       -1.02393580291069
C            2.58338694856826        2.66954522070654       -1.57987053540732
C            3.92857013458451        2.53862277730932       -1.44100900290005
C           -0.32068558720432        2.71373699588247       -2.10151057576050
C           -1.62080400540597        3.08886774562929       -1.97080927565098
C           -2.32417774032129        2.80832750212011       -0.76635829429045
H            2.14748412076312        3.60784929062698       -1.88333409160780
H            4.59492233277097        3.36187175244180       -1.64239978930374
H            0.23015944730453        2.91581095143946       -3.00632666318868
H           -2.13574420342437        3.60360791376305       -2.76646146734562
N            2.23409028755609        0.42493582278166       -0.84851175135414
N           -0.36888095216179        1.69429151053738        0.05009404531223
C           -2.30397623338912        1.91630044076640        1.50819346712610
C           -3.65542952562142        3.19742501041575       -0.58739661109367
H           -4.15919719483092        3.70662857457033       -1.39457956810480
C           -3.63112836454553        2.32073224444673        1.63868951777030
C           -4.30846837337005        2.93754680515550        0.59869447015667
H           -5.33927138133102        3.22951247641689        0.72753525949581
C            4.15285977834804       -1.09086241531796       -0.68691707263647
C            5.84929113261459        1.12385172167091       -0.85541089250616
H            6.49373050561205        1.98079243164158       -0.97820105979879
C            6.37196563984153       -0.11664299919460       -0.55362777235955
H            7.43275920054575       -0.24001872459431       -0.40019930903261
C            5.53246414095061       -1.21547901574702       -0.51188482624652
H            5.93428310634093       -2.20624451964961       -0.36452282571512
H           -4.12518765353013        2.14859774704142        2.58341922213470
C           -1.67582439279232        1.35268655602209        2.63972231003635
C            3.42262061437817       -2.29001087159551       -0.81397792292847
C            2.96683100662443       -3.38254308499765       -1.02053797631942
H            2.47040389754040       -4.29731793333393       -1.14648885735074
C           -1.26515231738226        0.91367402265809        3.68027922227231
H           -0.81895272488391        0.50262986066680        4.53483890080818
