61
 energy: -107.942548332896 gnorm: 0.000834956261 xtb: 6.5.1 (b24c23e)
Si           0.29488530751976       -1.64972223518822        0.58367330081918
O            1.66203865735276       -1.84391107564827       -0.26056255207141
C            2.87293598963148       -1.13179870432285       -0.26118891749919
C            4.00765215378697       -2.01671587818165       -0.69882658195274
H            3.06199038588456       -0.73889204010023        0.74444996867126
C            3.78282680706874       -3.08950821856199       -1.55062382572994
C            5.30205690398678       -1.73366740108058       -0.28038672957152
C            4.83997771937642       -3.87896325432782       -1.96739424949606
H            2.77467051131760       -3.30602978976156       -1.86975971805804
C            6.35792012629629       -2.51907556678374       -0.70536221845069
H            5.47650346315759       -0.89659186966389        0.38096387844275
C            6.12866274603399       -3.59428750455492       -1.54844649469212
H            4.65696829140653       -4.71793281456965       -2.62274872167889
H            7.36172225018962       -2.29471031727099       -0.37497299933184
H            6.95361027963767       -4.20937353649913       -1.87646099322990
C            2.28563641046923        0.90402107058115        2.90579163804372
C            1.25983190803427        0.36815212883006        2.32298521990894
H            2.82721639660886        1.73013909794448        2.47276989269734
H            2.63423291258674        0.54901843509801        3.86223080162281
C            0.23165234689113       -0.18463063898653        1.75875690013772
H           -0.75567187093367        0.21795465347261        1.97084499587324
Cl          -1.18906105899348       -1.73748443668653       -0.76365142032732
Cl           0.14372123934169       -3.33754785888960        1.72009146140376
O           -2.53168086078980        0.85868822497405        1.43385021041005
O           -0.03705525227569        1.07686772683390       -0.93447485096296
C           -2.55864333303714        1.77153930766622       -0.62557068752219
C           -1.47179929043772        2.65893319689176       -0.15326922661471
C            0.85434906593666        2.91935152077573        0.04950681606594
C           -3.86880105259524       -0.12552888327346       -0.15195402901240
C           -4.45713043873939       -0.04682205521425       -1.43576632590283
C           -3.09444722198648        1.86446406463999       -1.90764349379599
C           -4.06343456182400        0.98748698073769       -2.30951281220826
C           -1.68584118249049        3.87282682445382        0.48329692375707
C           -0.62453779846268        4.63043503760982        0.91319232090122
C            0.68679542732956        4.16207664189392        0.69510565059455
H           -2.72851300167505        2.64128643373301       -2.56082754499776
H           -4.50913929410992        1.05529723268411       -3.28891462676406
H           -2.70291081147595        4.19853435894476        0.63603790896071
H           -0.77840190288858        5.57332600941312        1.41244513365053
N           -2.96932320332626        0.83890365368046        0.24937501253742
N           -0.21773645934262        2.18821977752948       -0.35512436727546
C            2.16526059085056        2.38789870617398       -0.21096214698865
C            1.83395694859821        4.88253769511582        1.08254740534033
H            1.70858584286354        5.83112757040759        1.58009782567514
C            3.28166275450753        3.17794693042710        0.18706637458187
C            3.10122864356702        4.38587045909018        0.82128627376162
H            3.96607608819552        4.95874966497903        1.12276762387801
C           -4.18415864457938       -1.20835827360487        0.70407389156698
C           -5.40579879677913       -1.01892852061646       -1.80991644849215
H           -5.85755891229252       -0.94732629723704       -2.78773134277162
C           -5.73259774899899       -2.03934340808087       -0.95731843134897
H           -6.45856071400449       -2.78237447326656       -1.25180451799801
C           -5.11470042090771       -2.14449547083690        0.28850459581306
H           -5.34653499122979       -2.97195256859161        0.94127277019214
H            4.27053446044576        2.79583390731360       -0.01362435760494
C            2.34095117465546        1.19955175649210       -0.82747614069746
C           -3.53679291591187       -1.40497221753246        1.94470615564029
C           -3.04066677941444       -1.74738609462150        2.98463531960861
H           -2.55566771007679       -1.95829074952388        3.89002299239640
C            2.75240555696453        0.04582410445110       -1.22899890396959
H            2.84399086907773       -0.21734701935298       -2.27258558593016
