61
 energy: -107.997268670227 gnorm: 0.000762587196 xtb: 6.5.1 (b24c23e)
Si           0.15449726920782       -0.83541220657511       -0.08509494869733
O            1.38363680521411        0.01975011261923        0.56754800437168
C            2.49223315062176       -0.28809638388499        1.39050869648849
C            3.19932433516965       -1.53250265680901        0.90373393792924
H            3.16758677423189        0.57226267658778        1.24160814606635
C            3.41434114199181       -2.65616291207914        1.68770619620689
C            3.62535599146499       -1.54252537507622       -0.41989519514917
C            4.04057409146120       -3.76870765895423        1.15213129706829
H            3.08121898374844       -2.68803801235822        2.71165037192806
C            4.24190364790389       -2.65705873879625       -0.95520205426265
H            3.44883845761861       -0.67454503629269       -1.03821446795319
C            4.45305004636924       -3.77550290778001       -0.16787004430023
H            4.19467596382258       -4.64005532169392        1.77129327657147
H            4.55411828898540       -2.65150039621845       -1.98870217837525
H            4.93180698890849       -4.65027896281826       -0.58295972100936
C            2.07268057168991       -0.32001121629300        2.86613554943171
C            1.47245475412405        0.93826519401913        3.24994043358577
H            2.95547724769538       -0.50093944377993        3.48373964471436
H            1.34762344751335       -1.12342227357594        3.01198886112366
C            0.97572977469635        1.99037935065116        3.53024325989216
H            0.53992178443784        2.89819851355130        3.82184892885261
Cl           0.41635484641039       -1.89281048730026       -1.81148175658767
Cl           0.22591246546319       -2.51773537865522        1.23798356009271
O           -1.42462271208123       -0.66467808775598        0.54189584165789
O           -0.16320875597590        0.63961837127306       -1.15272466133496
C           -2.31309896404571        1.51741350733161        0.27254404771393
C           -1.05926867015479        2.20417406468187        0.28309372080379
C            1.14111272025564        2.49913933341475       -0.60970591270306
C           -3.66011077827831       -0.44528443628112       -0.09866248375863
C           -4.83735298419117        0.34755813854219       -0.07286668348771
C           -3.48986738229908        2.29516486325485        0.34424784513169
C           -4.71828134691109        1.73966754898372        0.19284039047376
C           -0.89120796872525        3.36965215497504        1.06550078498183
C            0.28273889989757        4.04845096413134        1.06433553183262
C            1.34239267977714        3.63520551413349        0.21278754360445
H           -3.38578003542606        3.36153674218752        0.45894501408648
H           -5.61174825821764        2.34196263929884        0.23262586543769
H           -1.69275503601490        3.65901199395298        1.72537172488918
H            0.43409895982215        4.90397038169452        1.70392372255017
N           -2.44727411442096        0.16009875371252        0.14833018761649
N           -0.03179410472608        1.80840339127991       -0.50968425101417
C            2.15769679110370        2.12690526292889       -1.51971252157557
C            2.56181256799335        4.31839270489040        0.17493400487277
H            2.69751962044946        5.17214195152138        0.82109191832630
C            3.35662283877212        2.83388816494068       -1.52232272853383
C            3.56771084073645        3.90914918856557       -0.67230426519744
H            4.51175176312923        4.43149205870880       -0.69153241664165
C           -3.79085634480452       -1.82593075180572       -0.36417223639699
C           -6.08849342294305       -0.23234432131965       -0.29666710716967
H           -6.96251797177505        0.40024140335795       -0.26955128577476
C           -6.20192192927799       -1.58384908243031       -0.54135111920212
H           -7.16970323616749       -2.03080537213365       -0.70724056012512
C           -5.06125943017443       -2.36502460068738       -0.57624428618372
H           -5.13007738801484       -3.42335952614134       -0.77606647409961
H            4.12673133049892        2.52917565856638       -2.21508785926127
C            2.01338569634608        1.08979328369138       -2.46678124051706
C           -2.71550865529088       -2.73401252398045       -0.46961937732265
C           -1.94134101414076       -3.63951048155531       -0.62750440320427
H           -1.17467215761184       -4.34785393342282       -0.72922421730649
C            2.02538025172935        0.26634578414224       -3.34214636178088
H            1.94741887239055       -0.50371618511756       -4.04947248935885
