61
 energy: -107.993287887362 gnorm: 0.000858181421 xtb: 6.5.1 (b24c23e)
Si          -0.01924228291444        0.38719184052921        0.64756691189855
O            0.65085451261753        1.24027599256146       -0.54868951887818
C            1.70679390756169        2.16572117045702       -0.50620278811577
C            1.25776246456522        3.53110431834564       -0.05054593337283
H            2.47887476062528        1.79608475160645        0.17995286800945
C           -0.06993967360649        3.91890441085448       -0.14647034528312
C            2.19269150019912        4.42360044585750        0.45897244563115
C           -0.45937997254738        5.18038032690490        0.26917523822478
H           -0.79837352810164        3.22180729180383       -0.53281843986406
C            1.80403356749557        5.68614872685944        0.86602288644035
H            3.22680843411934        4.12082917494112        0.54448075350546
C            0.47564395486218        6.06720333806733        0.77287508701719
H           -1.49831539051686        5.46803405659154        0.20071867899482
H            2.53726619390146        6.37208062385044        1.26473297774322
H            0.17090732567781        7.05109996798940        1.09839494036558
C            2.29983574404365        2.23814607355631       -1.92694445221372
C            2.84459500956031        0.95626447705811       -2.31769168788561
H            3.08330867692933        2.99935864637219       -1.95109774337994
H            1.50648385154480        2.52087761057505       -2.62208477764881
C            3.27846249722694       -0.11940244569505       -2.61163477205120
H            3.66642361407239       -1.05428158474585       -2.88670234074368
Cl          -1.84526263125024        0.97245283736696        1.52963255680112
Cl           1.03173717724643        1.18117432261526        2.32968420084336
O           -0.92853266419304       -0.44967396779335       -0.67810145804979
O            0.73403120181421       -1.09871952431393        1.07179833892066
C           -1.67208984735666       -2.44109451644108        0.20848602425603
C           -0.34527321155572       -2.97248360654259        0.11954848820085
C            2.03843254077547       -2.70551574132327       -0.03566226697791
C           -3.23328455275450       -0.74920179343132       -0.44343547057667
C           -4.30186787155735       -1.50297650299486        0.10280944965391
C           -2.73188346882679       -3.22073078295703        0.72005830790008
C           -4.00572804825479       -2.75051237575652        0.71585267875879
C           -0.21923776422154       -4.31009041289122       -0.31121659778108
C            0.97991429375012       -4.80945070423166       -0.70337748347936
C            2.14141464001018       -3.99083878814017       -0.63460027099420
H           -2.49187337434931       -4.16547002140510        1.18068057174135
H           -4.80772619445985       -3.31376830183549        1.16610378411251
H           -1.11908689501165       -4.89407463776907       -0.41564328599223
H            1.06846134926922       -5.81049050651597       -1.09368975619364
N           -1.96036304141871       -1.22282385205353       -0.31391405234561
N            0.79533621509081       -2.24646140869504        0.32804238337354
C            3.22910140057375       -1.97461040692518        0.16906100675303
C            3.36841465602687       -4.45563053191055       -1.11273338892381
H            3.40682314967538       -5.43097605392900       -1.57312023287049
C            4.43417842569305       -2.47262684436049       -0.33357695507260
C            4.50719529309727       -3.68735048355178       -0.98953272736392
H            5.45170751747583       -4.04152345689287       -1.37290503374708
C           -3.51898616905582        0.45297912734112       -1.13017131840904
C           -5.60960263154759       -1.01229874295286        0.02433843993598
H           -6.40774486739615       -1.59316548288685        0.46053432494981
C           -5.87011196334133        0.18634718797382       -0.60094597941729
H           -6.87883197841413        0.56615740366077       -0.65156113309888
C           -4.83458429683374        0.90032754098636       -1.18682948123194
H           -5.03822042432897        1.82391150340129       -1.70712102039837
H            5.32277815116974       -1.87862268101225       -0.18347755386672
C            3.33841492041183       -0.78170260842640        0.91449223646038
C           -2.54277491646088        1.20742675863128       -1.81734319923830
C           -1.83872927890701        1.92268271704495       -2.47822918782620
H           -1.16372537786749        2.50838482697919       -3.02625396914673
C            3.68474758645159        0.16533808304946        1.56994231409892
H            3.84790078351173        1.00626021454549        2.17587472785076
