61
 energy: -107.995217513163 gnorm: 0.000863451657 xtb: 6.5.1 (b24c23e)
Si          -0.16555650485486       -1.37295403577137       -0.28919017198674
O            1.35382164784971       -1.04590181723975        0.17819384200113
C            2.34600296382859       -1.22753025743663        1.15809905723019
C            2.16379631012699       -0.19470351420507        2.24485840203293
H            3.28723549621547       -1.01892221825686        0.62368274816458
C            0.93900448215053       -0.05410787534424        2.88499659481217
C            3.20460400754959        0.66262501359665        2.57712589220483
C            0.75531534285790        0.94190103264889        3.82754134208852
H            0.12853315249779       -0.72347804685552        2.64088228179215
C            3.02323716433634        1.64962393789431        3.52967645508688
H            4.16080356456561        0.55709495546097        2.08373762016375
C            1.79492049597130        1.79731392239247        4.15066476351515
H           -0.20320144001155        1.04650167881483        4.31445855349137
H            3.84137195231835        2.30802190309359        3.78370960183198
H            1.65003786652486        2.57440029103832        4.88698987127547
C            2.43184970191856       -2.65568319241506        1.71967154173370
C            2.61202273120995       -3.59254353016211        0.63167670595428
H            3.28149330326460       -2.70082319932137        2.40633971313914
H            1.51556709791113       -2.90341908607573        2.25678778646375
C            2.74397574951375       -4.29850742995938       -0.32481958008969
H            2.84693098520232       -4.95056248001987       -1.13924844560847
Cl          -0.39496191968901       -2.55322996691726       -1.92503652109684
Cl          -0.70041756361490       -2.83692419375941        1.17132689983146
O           -1.51912346545564       -0.55845683795928        0.37101720669825
O            0.02072976130857        0.07341537696812       -1.46510245151359
C           -1.49287366389594        1.78238924478514        0.02794843471085
C           -0.07133086152121        1.90206826432729       -0.06278696868283
C            1.99177297658528        1.26739975851520       -1.09240379463412
C           -3.52615727606014        0.50821223353136       -0.17949125058545
C           -4.28866322443206        1.70444947448842       -0.12920951900426
C           -2.25576390405965        2.96531366126015        0.13186715182012
C           -3.61145950220176        2.93956356363600        0.07094295256659
C            0.60693378075892        2.89896249365461        0.67451536941104
C            1.95163284079954        3.04275336770414        0.58027009478135
C            2.68890414418754        2.23477963506096       -0.32679412556120
H           -1.72869458181831        3.90307912310068        0.19704062618213
H           -4.19023632667053        3.84718392369819        0.13415850305916
H            0.03949882664968        3.48697808453137        1.37691704828918
H            2.47970159662639        3.75654460902985        1.19188476082314
N           -2.16029441467187        0.58842355868661       -0.02495487063757
N            0.64799145365156        1.11299778443872       -0.90199314772947
C            2.70897809935795        0.49132468156921       -2.03285342598037
C            4.07483877702019        2.36573736102116       -0.46229198002042
H            4.58528538418425        3.10069289489256        0.14119959585919
C            4.08734728321747        0.65464670425290       -2.13307349808836
C            4.76994263933910        1.57163189002439       -1.34724609327785
H            5.84067338445842        1.66826251780491       -1.44227120807327
C           -4.20608250461109       -0.71374965486143       -0.37192626469143
C           -5.67866735132579        1.66251940543028       -0.26423050412558
H           -6.22962752939862        2.58956787630739       -0.22127101549436
C           -6.33063363615990        0.46123817051670       -0.44301522126275
H           -7.40466961975555        0.43144805224714       -0.54143822935038
C           -5.59663749762064       -0.70985352155969       -0.49738301729729
H           -6.09093476800643       -1.65788641589407       -0.64446962997608
H            4.62114931260362        0.04760787330077       -2.84847438772717
C            2.09752703430694       -0.42858596455119       -2.91097475773200
C           -3.57941950672244       -1.97378399483235       -0.48218222605589
C           -3.22394808467933       -3.11232360114796       -0.62987586120894
H           -2.80025823606352       -4.06646264766333       -0.73135170036200
C            1.72064643811036       -1.21335026924868       -3.73934893932138
H            1.29540763431766       -1.91320756827238       -4.39430860986253
