61
 energy: -107.995472477538 gnorm: 0.000623394455 xtb: 6.5.1 (b24c23e)
Si          -0.58874244872652       -0.19548449737861        1.40087933150055
O            0.20220902521489        1.18637715969056        1.75151696486679
C            0.54442302130858        2.30191876657816        0.96077804468792
C            1.59461490341444        1.93617083243527       -0.05721329267508
H           -0.35431348044313        2.66375135093429        0.45046789983236
C            2.79918253232760        1.38238667781584        0.36038753708165
C            1.38325958560556        2.15406787598199       -1.41114759131054
C            3.79315034912003        1.09699115136980       -0.55752932958862
H            2.95148051210476        1.17085471515768        1.40846435870379
C            2.36996106884675        1.84656325093332       -2.33242213827325
H            0.44132157824569        2.56845178201113       -1.74089604711296
C            3.58227886739440        1.33289461901200       -1.90569591808623
H            4.73419483536694        0.68798551755981       -0.22077617266001
H            2.19523578009775        2.01829847409300       -3.38479369960838
H            4.36028681683590        1.11219495789217       -2.62146804283974
C            1.09773056673761        3.39585286458436        1.89556122641827
C            0.08696012595059        3.95026328327425        2.76864018652147
H            1.52756798512013        4.19427180109048        1.28307616011973
H            1.88493441525402        2.95745281493371        2.51293367953914
C           -0.74321884871238        4.41981995273395        3.49239304583421
H           -1.46827930182232        4.81972334656776        4.13726492147998
Cl          -0.19585048673220       -0.82262719142041        3.35671967954226
Cl          -2.54948827922155       -1.01087561723089        1.52517746700637
O           -1.03398067519947        0.50667774933413       -0.22560786440493
O            0.34725551986988       -1.45472810564594        0.69672856397958
C           -1.14779155699177       -1.17525470003886       -1.77982915215816
C            0.26958783462348       -1.39166544657602       -1.67660455563194
C            2.33117124882779       -1.76080193349765       -0.50268539274481
C           -3.10926833183897        0.08916028884982       -1.24320920948320
C           -3.86858683834810       -0.68449030888379       -2.15886954297759
C           -1.88576833700369       -1.92764127831648       -2.71720518433887
C           -3.21646145433000       -1.71599983655263       -2.88560076923079
C            0.95957618705764       -1.52842745106871       -2.89909909322298
C            2.30752935406679       -1.67489919690796       -2.94501452561516
C            3.03770312553652       -1.80342423794299       -1.73379961752036
H           -1.38013542231755       -2.72163502277583       -3.24276221545800
H           -3.79617008396827       -2.32547240163211       -3.56054028202352
H            0.38812545664666       -1.43079434066295       -3.80795404209992
H            2.83577585128794       -1.70728664603359       -3.88398335807362
N           -1.78129878037253       -0.19700369450002       -1.08937515039265
N            0.98123761352144       -1.48407333017423       -0.51351181367493
C            3.04902700377628       -2.03917018437580        0.68093449778972
C            4.41907514098084       -2.00804483853807       -1.75412782167432
H            4.92298231586439       -2.02631917080296       -2.70821049168491
C            4.43182136969894       -2.23014649378641        0.61700978176064
C            5.11954088471590       -2.19573651686413       -0.58153091274763
H            6.18840903898308       -2.34322095044153       -0.59872088856236
C           -3.75261443678027        1.13451397371859       -0.54275831483267
C           -5.23181529336105       -0.42499663314156       -2.33487344401261
H           -5.78823162200923       -1.03583682255537       -3.02917801247259
C           -5.84813163614288        0.58923562824648       -1.63717056084500
H           -6.90039400695299        0.78526858518052       -1.77307849827323
C           -5.10906126988348        1.36300519377276       -0.75599617383379
H           -5.58096663314339        2.16317269573338       -0.20641148672590
H            4.95383370278948       -2.42710243181641        1.54102863572842
C            2.46531874602681       -2.22414053896532        1.95152054466029
C           -3.10811521137018        1.97883696082389        0.38712848391923
C           -2.71676276322219        2.76844356757335        1.20438568122593
H           -2.27975791274579        3.39835716769147        1.92272625391297
C            2.16814028408803       -2.50128434862116        3.08305755679156
H            1.77824246433413       -2.67492183842526        4.04075710397352
