59
 energy: -108.587282937750 gnorm: 0.000725176297 xtb: 6.5.1 (b24c23e)
Si           0.48981311831444       -1.97161947145082        1.34867907662057
O            1.98614223216808       -2.02943205680757        0.71522617306239
C            2.59043196749911       -1.25744591002789       -0.29342321018796
C            3.94317775707350       -1.86670215684255       -0.57139787090243
H            1.95324530441775       -1.30521271762482       -1.19696155223165
C            4.94888802066579       -1.72916225853860        0.37526339283474
C            4.18355900671206       -2.58560940160937       -1.73164909471510
C            6.18752015984379       -2.30361749724384        0.15861870491829
H            4.74145833017068       -1.16709930086837        1.27164882265773
C            5.42547313580153       -3.15886433706845       -1.94735017323509
H            3.39952857050583       -2.69894213362342       -2.46718913970440
C            6.42797496822246       -3.01842759028537       -1.00358833186356
H            6.96806049882462       -2.19657385573512        0.89748634828553
H            5.60947078026560       -3.71791700217311       -2.85335221383224
H            7.39574773695140       -3.46741848940675       -1.17331702934941
C           -2.38524813639195       -4.02884459641935       -0.47920786932871
C           -1.57140548585401       -3.03966246059789       -0.30027379299419
H           -2.06492045484359       -4.93009011806122       -0.97501258288436
H           -3.40681804407678       -4.00316575774517       -0.13840524995322
C           -0.72205339443903       -2.07908766565264       -0.10327280544296
H           -0.62357774740009       -1.30518856567391       -0.85409594968338
Cl           0.31656237059488       -0.37699016393109        2.55230195368045
Cl           0.42692081217613       -3.68483607967263        2.38804101996854
O            0.61247406646631        0.87121150817002       -0.46099608109460
O           -1.81478244069988        0.54645974755366        0.74044785452820
C           -1.16311145566484        2.50019632583562       -0.98411033192155
C           -2.21774594868892        1.55650899535548       -1.26419469584325
C           -3.56339168253129       -0.23263612311655       -0.49587042565845
C            0.94784754027750        3.03133440526492       -0.04402540048763
C            0.75202062763240        4.41619784330277       -0.07808275128798
C           -1.36759429760324        3.88418709705476       -1.10341334794510
C           -0.47446352890255        4.83367416714751       -0.66390823233659
C           -3.00858065921922        1.65271580805463       -2.42262756627848
C           -4.03632732142694        0.78826628922826       -2.64946220159756
C           -4.34927791103071       -0.18432458847548       -1.66899352380120
H           -2.31635112480449        4.19733610463564       -1.51163490536075
H           -0.70273105235669        5.88296347143744       -0.75139890909225
H           -2.74943017111856        2.41130610848720       -3.14469652202709
H           -4.62326036629891        0.83911578056391       -3.55216198638219
N            0.04648402842930        2.12636073669529       -0.47315126010532
N           -2.49580008132138        0.61350437906608       -0.32296442020915
C           -3.90066600467513       -1.12801873887950        0.54274475722854
C           -5.42589616345812       -1.07659622065955       -1.79685561766773
H           -6.01441767103742       -1.04793754036414       -2.70131734455769
C           -4.98939615073943       -1.97145498195544        0.38910861525157
C           -5.73796326029070       -1.95379820407686       -0.78611093211870
H           -6.57466567783107       -2.62718085933091       -0.89190889004344
C            2.12409114840569        2.39933151931318        0.34556167658764
C            1.81860153920693        5.17540191217363        0.41529782244491
H            1.74047555479173        6.25116078191513        0.43288363349165
C            2.98402934746714        4.55535995116356        0.86294249634162
H            3.78316210653815        5.17840265851378        1.23514195551190
C            3.17356071231530        3.18151002321723        0.82278405154673
H            4.09555886321789        2.72373226987055        1.13622413367452
H           -5.25354871215283       -2.63702608007628        1.19720822720670
C           -3.18994961907065       -1.18183891735821        1.76729251441563
C            1.92330666539624        1.00204550613662        0.04557410163143
N           -2.77170155551947       -1.35757236220657        2.82178486487644
N            2.79218914882172        0.09680981359812        0.12231901542598
