59
 energy: -108.593594548420 gnorm: 0.000711688262 xtb: 6.5.1 (b24c23e)
Si          -0.01375882442180       -0.52209071303578        0.09875791523374
O            1.15111587357362       -1.63151899942075        0.10979860079070
C            2.31842305789243       -1.84749490659230        0.86929143690045
C            3.50346242707637       -1.98260752874593       -0.05157459029263
H            2.47545031395761       -1.00518515089238        1.55260510675411
C            3.35906875683258       -2.53525822733907       -1.31565779541293
C            4.76207015506133       -1.58765551099813        0.38143500717287
C            4.45900162492543       -2.67853626024174       -2.14165320822510
H            2.37744885261819       -2.82978949078668       -1.65262926955603
C            5.86189174772086       -1.73936158214610       -0.44260938379312
H            4.87526116296425       -1.15273294420031        1.36500366931474
C            5.71201852722360       -2.28379550519500       -1.70674073207179
H            4.33705750112093       -3.09859951304069       -3.12942952417142
H            6.83767633381032       -1.42544883630315       -0.10013610266878
H            6.57091468740479       -2.39440880270758       -2.35295046949344
C            2.14128865290215       -3.14046904720734        1.68906210725414
C            1.16009947087626       -2.95611760340777        2.73586544025859
H            3.10600590472774       -3.41625366260425        2.12365476241448
H            1.81408146415295       -3.93465768770697        1.01314419854029
C            0.34476253722779       -2.75176651390504        3.58682048374554
H           -0.38684230646810       -2.59201886637058        4.32009818098400
Cl           0.58469964623251        0.47786065150413        1.92975277595705
Cl          -0.81220179582000       -1.58051681458557       -1.58364534964902
O            0.15298031035836        0.89031622146648       -0.88879967686999
O           -1.63780263654570       -0.16603576766816        0.68812272337229
C           -1.54997436995321        2.38579991809592       -0.34484880741263
C           -2.56993455091721        1.43481381031274       -0.70688666117640
C           -3.52931323946855       -0.75063600946889       -0.54695588073861
C            0.74840293905991        2.94745048241278        0.02481865592576
C            0.37496583800082        4.21232204698811        0.54404263394935
C           -1.92443999510873        3.68235490501963        0.05377274297455
C           -1.00058849544763        4.56753739621571        0.52075333989340
C           -3.61413175976658        1.82635337491984       -1.56516266095772
C           -4.54890776811384        0.92961959265973       -1.98466051629394
C           -4.52386268448497       -0.40315719050351       -1.49461186775144
H           -2.97517034968373        3.92461566575305        0.06066824046034
H           -1.29699527010506        5.53563760707407        0.89144625637261
H           -3.60465585266286        2.83542665415861       -1.94517518452713
H           -5.30877380456991        1.21144775597337       -2.69584759907556
N           -0.22327250511693        2.09089650095156       -0.39144714417906
N           -2.59122016197868        0.17276734862615       -0.20402327262144
C           -3.55337974854200       -2.03408611484660        0.03468718630636
C           -5.45413096203391       -1.36677000703962       -1.90051030375046
H           -6.19440817193335       -1.09305948427675       -2.63642737849666
C           -4.49672879771481       -2.96374220928510       -0.39444804159568
C           -5.42733729085501       -2.63867860701128       -1.37045498230388
H           -6.13989651226754       -3.37941713296868       -1.69757666531871
C            2.11577342034052        2.61992196006777       -0.06939855518619
C            1.36193730470357        5.07141912011585        1.03867287773085
H            1.06150609932642        6.02422357670794        1.44656762939524
C            2.69256457876146        4.71011045633718        1.00413878217146
H            3.44603351914064        5.37288861516747        1.39969315421131
C            3.06839007334799        3.50306132430618        0.43548030565518
H            4.11019662180566        3.22917552402659        0.36769687153335
H           -4.49212657758572       -3.94637175125577        0.05202101898762
C           -2.71002697539501       -2.43597496120722        1.09643002346638
C            2.61021749305988        1.46621719416408       -0.72020215014766
N           -2.14944735735203       -2.86526909172663        1.99978809447742
N            3.14436686810039        0.61979679165371       -1.27989744839717
