59
 energy: -108.507325243538 gnorm: 0.000868618697 xtb: 6.5.1 (b24c23e)
Si          -0.85482029238663       -1.12445985134821        1.04297250577966
O            1.27806294396781       -2.51333079122517        0.49663436742905
C            2.03175014214491       -1.98504057705256       -0.29732856410950
C            3.41000377328470       -2.39242071950195       -0.54186114388926
H            1.69358435434117       -1.14987317976942       -0.93406068935873
C            3.95092535274564       -3.48811265406627        0.13605578052029
C            4.19139070644287       -1.68715860498796       -1.45989943092021
C            5.25425150543091       -3.87369894809151       -0.10346106071643
H            3.32697190205685       -4.01847213711706        0.84004171059945
C            5.49676841325021       -2.07819605422810       -1.68943475116161
H            3.77481179023421       -0.83458128606123       -1.97800967457041
C            6.02700797793195       -3.16889652267906       -1.01575349481570
H            5.67247553137536       -4.72243037772786        0.41704070169812
H            6.10330054746191       -1.53345277274580       -2.39689365099508
H            7.04685467692512       -3.47240771189670       -1.20191710485657
C            3.03409733254637        0.01064734892852        1.46239690115188
C            1.75641027497075       -0.01466010145971        1.67015500800393
H            3.49403281068852        0.68106105001423        0.75590328414488
H            3.69671138077710       -0.65165738507004        1.99507332563567
C            0.48081738485248       -0.07849733601835        1.88735546197687
H            0.06921353051478        0.54760660635167        2.67264696955138
Cl          -1.01188032772531       -1.52221031777120       -0.93937317582284
Cl          -1.38593039505849       -2.67734249011292        2.18121679709850
O           -2.15574858112902       -0.02155948397892        1.23769554718660
O            0.57081185872120        1.62082800117040       -1.64958592276894
C           -1.96707118657454        1.38148736060296       -0.63435580794788
C           -0.91097579708717        2.08617340204543        0.04241450877474
C            1.31571613975102        2.87265370989925        0.09180162866867
C           -3.89563511043256       -0.02405338116672       -0.33789544650362
C           -4.23611388370963        0.14718269510372       -1.70176551048721
C           -2.25737789161939        1.50867068296305       -1.99149801512872
C           -3.36127919074943        0.90209623198120       -2.52896345455195
C           -1.13613763766071        2.67964046123554        1.30104128015697
C           -0.17763446055133        3.42072615298026        1.92040210163918
C            1.09904687288557        3.53906682857902        1.31738217361338
H           -1.59203185225987        2.09887180649083       -2.60010046405584
H           -3.58604785138187        0.99372833042639       -3.57897029296458
H           -2.11436645806767        2.56131934246934        1.74041175913296
H           -0.36927202050178        3.91347427801977        2.85984560118336
N           -2.76193103533806        0.56914215122145        0.14416666918589
N            0.31267860580805        2.18918233402673       -0.54245076396776
C            2.59917257082818        2.87639326538786       -0.49825889358532
C            2.15865164701164        4.26053130704388        1.88525306765884
H            1.98995523658043        4.78047540881420        2.81600742873648
C            3.62335184397430        3.59763175808248        0.09753075726214
C            3.39281830835583        4.30129565827649        1.27590319429046
H            4.19766228509173        4.86524769805784        1.72157121227694
C           -4.72419527859315       -0.78985702104785        0.49887589493189
C           -5.39369728259930       -0.47142770460321       -2.18925172646139
H           -5.64551313944404       -0.34726728380663       -3.23123758748874
C           -6.19232399958016       -1.23976568651668       -1.36345942459104
H           -7.07503202312220       -1.71791904884566       -1.75914022835816
C           -5.86754446219306       -1.39878074272023       -0.02871029167419
H           -6.48954366774987       -1.98932634809170        0.62624980537197
H            4.60225170777963        3.59816927207147       -0.35804146118279
C            2.89202752983442        2.08212492319850       -1.63331339937162
C           -4.48509038549278       -0.92059073689140        1.88447774285200
N            3.37273095938999        1.45730541306784       -2.47176676865362
N           -4.39914968694098       -1.02055222191041        3.02428601445280
