59
 energy: -108.593182920013 gnorm: 0.000555305001 xtb: 6.5.1 (b24c23e)
Si          -0.06622370157414       -0.68539797545794       -0.56116101701312
O            1.37414720764646       -0.27525049287404        0.08617348288608
C            2.16012061211634       -0.96971399252271        1.03119114131568
C            2.96773448446146       -2.09094602811858        0.42965833317119
H            1.50044625035107       -1.37636923075566        1.80725417652273
C            3.35037658306297       -2.07509986844730       -0.90277221896053
C            3.36840385836734       -3.14435599127558        1.24247047727388
C            4.12238487467974       -3.10287187439986       -1.41650156648803
H            3.02748872780355       -1.26941270054245       -1.54451258145726
C            4.14460286542515       -4.16609502702842        0.72889358950762
H            3.05695490351924       -3.16752632355139        2.27706544681973
C            4.52534098152958       -4.14649054989953       -0.60263099120958
H            4.40681722611298       -3.08443025917235       -2.45799850968993
H            4.44629672941912       -4.98375319934906        1.36717288755421
H            5.12784251170139       -4.94769004489776       -1.00511476438513
C            3.10560169963472        0.06891174517214        1.66862947327143
C            2.34741146680189        1.08756704279673        2.35999856330713
H            3.76775255610580       -0.44028108971470        2.37274317294756
H            3.71020368087928        0.52440138350840        0.87971558433691
C            1.66725453505813        1.90404793799656        2.91039783064748
H            1.09244975654416        2.61899675149869        3.41888608324815
Cl          -0.95584194766345       -1.09468573280764       -2.38988760937880
Cl          -0.02558460041108       -2.73863051318373       -0.01954075327387
O           -1.24762271799814       -0.23206910620866        0.64091416711358
O           -0.13135668591075        1.02882081615995       -1.24494558275729
C           -2.37465285284539        1.73442478548086        0.04459212960349
C           -1.16710790159815        2.50422732787849        0.18288512747103
C            1.14519643314114        2.76372224720904       -0.33598861881559
C           -3.50891675351870       -0.36701661203137        0.12313703808575
C           -4.66378322364066        0.20849291728239       -0.46047029446015
C           -3.57307973524784        2.35541586403310       -0.35026607905150
C           -4.67160739680542        1.61472594925469       -0.67073345022356
C           -1.15031456939878        3.71141465221913        0.90225156014213
C            0.01603478918425        4.39077871030913        1.08565602294532
C            1.21362578802495        3.92083359630673        0.48149451592826
H           -3.56319105701780        3.42435751881195       -0.49228929422559
H           -5.55659461745883        2.07930354186561       -1.07448934754246
H           -2.06892189242979        4.04209587658887        1.36072727501546
H            0.05098026830930        5.28567316002492        1.68667774305974
N           -2.38632350156939        0.39338930828603        0.26221298669753
N           -0.03000863607249        2.09068076613571       -0.43358273490136
C            2.28856686909127        2.36404978173530       -1.05757916360974
C            2.43797937763393        4.57809093322544        0.63901595626564
H            2.48237446968522        5.44663762780978        1.27782325017423
C            3.48849272903797        3.04914307480298       -0.87663361423168
C            3.56770539264794        4.13259667696002       -0.01562098357688
H            4.50977836944300        4.64010797080839        0.12008437537547
C           -3.55759484757757       -1.69782977497444        0.58515662040630
C           -5.75729537714184       -0.61334773253271       -0.75257466801233
H           -6.62365496136108       -0.17586647949102       -1.22402165702394
C           -5.73363209452109       -1.95638365833031       -0.43334277877408
H           -6.57092801866264       -2.58739094957440       -0.68669696637153
C           -4.66423990518868       -2.48518690758700        0.27373613755980
H           -4.68161786544181       -3.50942892912283        0.61271831176790
H            4.35774934519246        2.72376307802323       -1.42859158297947
C            2.28959181258804        1.32463607836493       -2.01381825239504
C           -2.63530428698420       -2.19834332105777        1.53466773518586
N            2.44298476197443        0.54345683419399       -2.83990560701247
N           -2.05281176913437       -2.60812158983549        2.43296249221830
