59
 energy: -108.590714729948 gnorm: 0.000523072370 xtb: 6.5.1 (b24c23e)
Si           0.16020401538367        1.03097377484139       -1.19303013866798
O           -0.54438402500448        1.92140130098551       -0.05159402359585
C           -0.23919892536985        2.21142810707903        1.30195037286590
C           -0.89586001891233        1.20814720274457        2.21092235854484
H            0.84464031096899        2.18609154686191        1.43294343080702
C           -2.25607661615530        0.94882504391363        2.09762627534290
C           -0.15638843232627        0.53556554227436        3.17434947779679
C           -2.87181918880239        0.05293875238496        2.95323323639664
H           -2.83071232411720        1.45304244273403        1.33404177020567
C           -0.76887861864313       -0.37466072244460        4.01762296032711
H            0.90247858672381        0.73198065589691        3.25729688269981
C           -2.12956778523523       -0.61062302242481        3.91530404366744
H           -3.93479095825534       -0.12194298181130        2.87229477786200
H           -0.18510086708581       -0.89504655919330        4.76329451787957
H           -2.61000534120712       -1.30824162608545        4.58584486304916
C           -0.74507913088600        3.63541501275812        1.58988213725363
C           -0.00560141451371        4.59784999062507        0.80100797165975
H           -0.61615147591701        3.84743622931350        2.65451231360525
H           -1.80614004996065        3.69878309598581        1.33697994438761
C            0.61876139544047        5.36200055825350        0.12547912845401
H            1.16269401950318        6.03963635243466       -0.46119189421884
Cl          -0.88621248701393        2.03202268082724       -2.68168578097848
Cl           1.98561401627942        1.02889639495026       -2.11767163396459
O            1.10852137540136        0.11216620255614        0.37664897157837
O           -0.46852160149887       -0.54166394503193       -1.52246420104023
C            0.96475779990578       -2.17114209546742        0.21402684010988
C           -0.46979212877179       -2.07299421281881        0.26614032910812
C           -2.51435320649529       -1.22279659645610       -0.63446285739010
C            3.07778192548643       -1.08493826312376        0.12273189833644
C            3.72964299412680       -2.33077407635811       -0.05168015632101
C            1.59995839126655       -3.42542328229024        0.18377161130720
C            2.94697180296075       -3.51437734018020        0.00706613382945
C           -1.20248774418489       -2.81923400581382        1.20149592291120
C           -2.54906060141267       -2.64916966692869        1.33615303452165
C           -3.25199983179899       -1.82553412963183        0.41411568687291
H            0.98023174076633       -4.30714481164652        0.22244147090660
H            3.43454699594566       -4.47099502032155       -0.09152834463247
H           -0.65408554011967       -3.46116111045940        1.87221997963994
H           -3.09775202175009       -3.14935749045268        2.11708491386079
N            1.71930743510314       -1.04528205614568        0.21138219933883
N           -1.15175668192165       -1.27018836423490       -0.59800348307250
C           -3.20657973508590       -0.64111943111369       -1.71542874903436
C           -4.63646090206783       -1.63791138401252        0.46405000773028
H           -5.19037221455070       -2.08191277022967        1.27690443019900
C           -4.58842855761325       -0.46325808247541       -1.62433081176492
C           -5.28782423489295       -0.91383239936396       -0.51728529191371
H           -6.35222518861313       -0.75029231647256       -0.45281389118357
C            3.85347196840448        0.09008020809684        0.23433780614591
C            5.11771162618622       -2.35490733808670       -0.23504098688190
H            5.60207522107764       -3.30700689186424       -0.38879981647669
C            5.85317576328984       -1.18918662826665       -0.21162543259459
H            6.92006388738160       -1.21790281437166       -0.36815231922050
C            5.22995862590176        0.02328615303070        0.05128530249731
H            5.80754641437502        0.93185473945648        0.12550043964682
H           -5.10282247971253        0.00680535681209       -2.44826551909706
C           -2.60518363351192       -0.45754556373302       -2.98244153139004
C            3.30447557055673        1.33066779837800        0.62725774980791
N           -2.25225960479011       -0.47403469079898       -4.07299832469768
N            2.99785868576325        2.35595454691595        1.04261899698393
