59
 energy: -108.590646681975 gnorm: 0.000810908655 xtb: 6.5.1 (b24c23e)
Si          -0.26962794675213       -0.20603084821827        1.67076018608690
O            0.81973227605713        0.91468964322396        1.36628257538269
C            0.91255604100468        2.14196162700411        0.65486615739011
C            2.05696099743284        2.01569912331543       -0.31496775025652
H           -0.02399895577368        2.30946106444406        0.12191550677289
C            3.31702113710380        1.64429529843997        0.13880748478121
C            1.86005155078705        2.23123548079477       -1.67150847387122
C            4.37039833882716        1.51851566621788       -0.74822233457056
H            3.46678575733637        1.44326501595381        1.18952813278347
C            2.91309285627917        2.09781831065910       -2.55987646435611
H            0.87593110616114        2.50150461560142       -2.02442710054682
C            4.17127669851045        1.75021687777675       -2.09886391094418
H            5.34907686145095        1.24216723785472       -0.38423239271442
H            2.75205446860515        2.26990088558351       -3.61467804137300
H            4.99543530605214        1.65746540499774       -2.79126932048094
C            1.12368540979552        3.27510881635455        1.66962480784536
C            0.00859754174797        3.32489192970438        2.59167541125709
H            1.20097540139474        4.21961096347777        1.12639892887465
H            2.04826721916290        3.10396743918821        2.22666545613779
C           -0.92061844857688        3.30130122444258        3.34429798718653
H           -1.73277930641316        3.31325091392196        4.00765456371786
Cl           0.38118025410301       -0.79877088604858        3.49258325182736
Cl          -2.24850225048951       -0.00387429409894        1.93038197734416
O           -1.05949111977117        0.64086193659206       -0.59934413245220
O           -0.07756480375204       -1.55633655953044        0.66416132017067
C           -1.32290501989557       -1.27995009515909       -1.78086783887535
C            0.11672466173999       -1.44519529791096       -1.68635480025074
C            2.05840491582081       -1.76102743188637       -0.32405604623901
C           -3.19085401001491        0.05232573738034       -1.21002494280233
C           -4.06369820716429       -0.86400908746274       -1.84096116279426
C           -2.14566527401102       -2.15131024668836       -2.50514953649534
C           -3.49978263295513       -1.97786670065526       -2.51056923478090
C            0.91855977624692       -1.40766029571941       -2.82207853887138
C            2.28643239566163       -1.36220320978123       -2.71606958444299
C            2.89621432476145       -1.53515948032183       -1.44701517638892
H           -1.68283574252192       -2.98869222919895       -3.00338067721522
H           -4.14966222758732       -2.67483625309732       -3.01474616744650
H            0.43145081063952       -1.32466738629580       -3.78086971197943
H            2.90784631530397       -1.22419971925462       -3.58481275330377
N           -1.85024884197688       -0.19385242877638       -1.17665255872653
N            0.71315320001924       -1.57188686755424       -0.46206573846511
C            2.63027245620542       -2.22819061154726        0.87217949516818
C            4.28331110570398       -1.56624860501987       -1.27191226312456
H            4.91479588735888       -1.36758106257042       -2.12334648619605
C            4.02508453078780       -2.24117530957334        1.01161887461103
C            4.83791053016125       -1.86554521758551       -0.03934522670730
H            5.90964890608377       -1.86174959718889        0.08559106191642
C           -3.69990667858078        1.24128123743382       -0.64106970291409
C           -5.44375186091205       -0.61053029111506       -1.80172293436786
H           -6.11288240390000       -1.31858531065804       -2.26634711446184
C           -5.93504465818418        0.52084908678028       -1.19105752488346
H           -6.99865069045121        0.70013917590473       -1.16158079774854
C           -5.06958079068592        1.45692664499513       -0.63230827724097
H           -5.45450396385952        2.36382805061033       -0.19208636444808
H            4.44542254914343       -2.57805705506579        1.94656301230279
C            1.87146609025553       -2.91250091484648        1.84461906906739
C           -2.84683791506160        2.25814818538427       -0.15121557341868
N            1.34386212184306       -3.62058724834317        2.57710147931890
N           -2.28657905026121        3.19637194713775        0.20254191622072
