59
 energy: -108.590964294278 gnorm: 0.000519040297 xtb: 6.5.1 (b24c23e)
Si          -0.44991217156030        0.35355502944688        1.08735778803696
O            0.66628619793417        1.15565188829548        0.23311055527966
C            1.64069603808753        2.10584941189347        0.58677805524802
C            2.87424532492861        1.83213287409215       -0.23534757562291
H            1.87130262308461        2.01209056529704        1.65604939624730
C            2.74975082847920        1.39716939788502       -1.54859628764029
C            4.14063406871953        2.00666300081585        0.30592405251527
C            3.87585428525583        1.14206191213411       -2.30981373120024
H            1.76149141196066        1.25463648736154       -1.95902898705920
C            5.26663857713244        1.75882301294872       -0.45938763148871
H            4.24073125555238        2.33670118678702        1.32984714980859
C            5.13675932591500        1.32614935328347       -1.76821099414421
H            3.76984144506190        0.80401622704682       -3.33069297748705
H            6.24843653678238        1.90056455777882       -0.03171340157701
H            6.01648079841738        1.13281722404107       -2.36469781687183
C            1.08721816691516        3.51808422445753        0.31663931365844
C            0.04344495252251        3.83143033953767        1.26831207089569
H            1.89921772510252        4.24568062175783        0.39351604181071
H            0.66896901716882        3.54076506256022       -0.69209260683657
C           -0.81011724510393        4.03009464017029        2.08238373280988
H           -1.56493835288702        4.22546858077963        2.78327061812785
Cl           0.36721592231958        0.64730929068408        3.01449424543605
Cl          -2.39057040623514        0.53188907679085        1.83925483893323
O           -1.21362674760885        0.20966888090635       -0.63191734081005
O           -0.07030580094238       -1.34135060115298        1.01887880660979
C           -1.77517026340223       -1.97179061437155       -1.08651607638403
C           -0.36348839121636       -2.25016802664145       -1.12239993697792
C            1.82458097239925       -1.90746783141482       -0.23040081549450
C           -3.46455781187940       -0.30080151839598       -0.90748012808930
C           -4.47330650869926       -1.27802628334742       -1.09236182417181
C           -2.74980785800143       -2.93923791344142       -1.38062189992238
C           -4.07411066585982       -2.62061142385493       -1.33173666557768
C            0.19665563431824       -2.84439254939147       -2.26479030312878
C            1.54315584241699       -2.80420353385560       -2.47693470494143
C            2.40121464434198       -2.27829006518127       -1.47221231576912
H           -2.42196243980656       -3.94817006390168       -1.57456934568453
H           -4.83240226765460       -3.37173295221880       -1.48508050268101
H           -0.47646963460026       -3.22313353407398       -3.01751509923072
H            1.97262860707237       -3.15892483039755       -3.39971724238964
N           -2.16533996868082       -0.69447482058751       -0.85362110477488
N            0.46688452752259       -1.83958119147330       -0.12600320977810
C            2.67563118098274       -1.65212909353482        0.86298429454983
C            3.78393318279609       -2.16756448341679       -1.64351612232704
H            4.20936134534165       -2.42600271430788       -2.60071254635295
C            4.05038351923031       -1.53912898761370        0.64992611950024
C            4.59315616327760       -1.74730278728108       -0.60611862884779
H            5.65489191219877       -1.63547763884956       -0.75652046012810
C           -3.81976605471003        1.06296618944321       -0.82374725289863
C           -5.81619167056555       -0.88105248176718       -1.06949794708306
H           -6.58091965447576       -1.63336861213493       -1.18710962886433
C           -6.15493513684827        0.44532790101275       -0.90926965804550
H           -7.19239265826134        0.73961072991322       -0.88178488478485
C           -5.16457262507762        1.41483902543120       -0.81597872042604
H           -5.42691006887947        2.45898850040225       -0.74169222057931
H            4.68496654665152       -1.31269498826568        1.49268390194905
C            2.23879936814535       -1.72243446158538        2.20504777596739
C           -2.86569683113810        2.10857798850823       -0.83546553463329
N            2.02008087042117       -1.93944780562351        3.30902611791492
N           -2.20135758436559        3.03889562661587       -0.92827774459333
