59
 energy: -108.588764531385 gnorm: 0.000588627039 xtb: 6.5.1 (b24c23e)
Si           0.49161446769606       -0.67859786082298        0.80377344072577
O           -1.10293675673359       -0.82262418539923        0.50176262973607
C           -1.94524694795063       -1.95049601952044        0.51511030113245
C           -2.95299863583440       -1.88579321020567       -0.60447574602861
H           -1.33494119427131       -2.85456084140082        0.40210224099798
C           -3.21359192377154       -0.70958183192551       -1.28998504519907
C           -3.66924679907374       -3.03061368685891       -0.93807259996168
C           -4.17971911977349       -0.66808457449293       -2.28018903835435
H           -2.64539921142935        0.17457141336627       -1.05308957582984
C           -4.63579038688205       -2.99004985217254       -1.92523085864725
H           -3.45903539940311       -3.95814623193288       -0.42544978539890
C           -4.89856047106321       -1.80651006014771       -2.59631724493139
H           -4.36959344078469        0.25851970799971       -2.80352626348481
H           -5.18493862494386       -3.88574324116033       -2.17563283150121
H           -5.65499730562537       -1.77580854272386       -3.36661835563592
C           -2.68051671383933       -2.02541535566203        1.87075760984831
C           -1.73319969226011       -2.16610726083378        2.95519832081096
H           -3.36125897512280       -2.87984900724596        1.85631988531000
H           -3.26369497510741       -1.11076973594854        2.01153765531258
C           -0.90481905800047       -2.27267263496326        3.81148478997177
H           -0.18990307401054       -2.35576200454667        4.57382157295356
Cl           1.74811968347117       -0.32090972962858        2.40664498470760
Cl           1.00434642433404       -2.73853722465075        0.74610403271467
O            1.21456545016744       -0.34302333690435       -0.75040236572220
O            0.21163628163056        1.14744926638256        1.00665635930466
C            1.80987051093582        1.91194475605500       -0.98900479543122
C            0.42490897289813        2.30084760519513       -0.97137542034106
C           -1.68873410656340        2.17691421829560        0.12398224651196
C            3.47414109796419        0.20703008737127       -0.83546644006255
C            4.49422897506269        1.18373665492217       -0.72725618625562
C            2.82235440185749        2.88089761902104       -1.09544602687948
C            4.12853488782785        2.54816060698333       -0.89021287235051
C           -0.11748518273954        3.15913564060295       -1.94211315328758
C           -1.45317293411419        3.42961169503363       -1.95478273352692
C           -2.29002646857879        2.92353076566437       -0.92265331135325
H            2.52410765145757        3.90786170920055       -1.23458881414831
H            4.89645797896879        3.30400523477483       -0.85899579821579
H            0.53628578514891        3.52910385380612       -2.71580996690743
H           -1.89320500681482        4.02604723821730       -2.73780127563222
N            2.17151253861973        0.60928283501810       -0.85728393102297
N           -0.37206826017754        1.85702298282527        0.03412619110996
C           -2.46361908138047        1.80423562962643        1.24335815339403
C           -3.66890402082468        3.15758532464632       -0.88717174227573
H           -4.12220551555782        3.70679538460437       -1.69803692887695
C           -3.83300201441192        2.05982408868603        1.23874051730014
C           -4.43466657999270        2.70294237039849        0.16735725393162
H           -5.49958753436403        2.87386158485798        0.17696130145899
C            3.82936407372042       -1.15131378326280       -0.95958850388388
C            5.81369075634617        0.76577342234715       -0.52461961339966
H            6.58300517758643        1.51372366953403       -0.41094803274027
C            6.12795624876870       -0.57808219312962       -0.48322558008699
H            7.14346445069992       -0.89082945625504       -0.29797224338250
C            5.15447837514628       -1.52869570626383       -0.75111619349950
H            5.41175397795224       -2.57400148446098       -0.82488435331563
H           -4.41910398415030        1.75772155938623        2.09364035284152
C           -1.90925610486558        1.25323162049192        2.42213316727272
C            2.94728112469994       -2.11054796959908       -1.51148440697755
N           -1.58674678206174        0.88059927095144        3.45774340202582
N            2.36616798952031       -2.88569379414666       -2.12404037482124
