59
 energy: -108.594454420474 gnorm: 0.000601716549 xtb: 6.5.1 (b24c23e)
Si          -0.04581768909513       -0.51156522809382       -0.13710869205352
O            0.77593448728529       -1.89270760235282       -0.22881047371402
C            1.83152109721394       -2.45356361828766        0.53459157069879
C            3.15880977371829       -1.92496686313377        0.05331596467193
H            1.68673090642105       -2.19314094989947        1.58833038936164
C            3.55532876957173       -2.12980158944975       -1.26226434003646
C            3.99136114239033       -1.21894098035885        0.91067294805332
C            4.77435810212431       -1.65208727625529       -1.70796033667256
H            2.89750500228369       -2.64601509999169       -1.94373927938961
C            5.20626010987723       -0.73183492007179        0.46029422024369
H            3.68300181230716       -1.04076143203111        1.93014394765574
C            5.60310676425029       -0.95321313557289       -0.84716195871274
H            5.07199239797657       -1.81596143884239       -2.73237878297077
H            5.84378955750917       -0.17871991476932        1.13576522560797
H            6.55390677261761       -0.57640705680871       -1.19668260253547
C            1.75497007809832       -3.98084515209462        0.37787640046395
C            0.61055862422993       -4.51868004584701        1.08135750506237
H            2.67543489917195       -4.41879613842695        0.77464152045567
H            1.67349716599231       -4.22253082489383       -0.68385103735068
C           -0.33919759324702       -4.93497317343104        1.67726658625657
H           -1.17981634972360       -5.28878542097086        2.19351267812727
Cl           1.04297450102958        0.25411135423533        1.60898412247233
Cl          -1.19351950066279       -1.20671288087516       -1.79560967318360
O            0.20696746531494        0.95326737144040       -1.03316668131152
O           -1.45958002319116        0.01345735711698        0.74113666623376
C           -1.02783033392469        2.64142841272586       -0.01195163432095
C           -2.26220405608550        1.94437724281083       -0.27370643307276
C           -3.57535712716027       -0.05626338866398       -0.23167175197877
C            1.36187645775367        2.74370774277022       -0.09791448845529
C            1.36001236832388        3.94106001397339        0.65850218930798
C           -1.05084043188893        3.90034693215321        0.61582300971262
C            0.10477619772652        4.52074310345217        0.98617594672851
C           -3.33719648657114        2.63259904806457       -0.86496877654835
C           -4.47416865690504        1.97569154846497       -1.22739255936044
C           -4.61699743163093        0.59160763908020       -0.94095000890177
H           -2.01064992816239        4.31576028157401        0.87878193713783
H            0.08428573248444        5.44567316662576        1.53991330255114
H           -3.20079657231533        3.67624389630038       -1.09961616819223
H           -5.26999882335703        2.48806480199033       -1.74383589593893
N            0.17867796545191        2.13572489600616       -0.37799292199531
N           -2.44510021925226        0.64023618716366        0.06295564844048
C           -3.74616253227988       -1.39497295988517        0.17463496856246
C           -5.75169315577660       -0.13845598845953       -1.31223579153781
H           -6.53009112878903        0.36157525815981       -1.86770253344267
C           -4.88940196998503       -2.08698907315386       -0.21673561879632
C           -5.87385968718799       -1.46933146484443       -0.97410568608408
H           -6.74452562695580       -2.02907519755175       -1.27786848792404
C            2.58490541264513        2.21850123442573       -0.56100416957912
C            2.58098899540631        4.51182611565228        1.03402157034471
H            2.57067173211115        5.41295099064739        1.62760413253531
C            3.77529504101406        3.93426165599559        0.65487039940439
H            4.71095888989388        4.37039449131447        0.96802734883765
C            3.77915550457027        2.81142706524712       -0.15913719253789
H            4.70746816812199        2.38098586459025       -0.50226223787193
H           -4.99827873438319       -3.11697063012882        0.08653583594914
C           -2.85535764648216       -2.07321364171390        1.03914351978939
C            2.66539126438464        1.17488954631231       -1.51002044412479
N           -2.26529160775647       -2.69841966230439        1.79776014177805
N            2.84406615350128        0.41408153086405       -2.34930203784520
