59
 energy: -108.584842254409 gnorm: 0.000327518822 xtb: 6.5.1 (b24c23e)
Si           0.18751049709012       -0.65984972557633        0.59476211360252
O            1.61768930133660       -1.30613464528076        0.17335139056644
C            2.43428077506600       -1.23868739478816       -0.96479887990679
C            3.77804518539984       -1.84889739316005       -0.65107884807089
H            2.56527166287261       -0.18457718593195       -1.24112918374680
C            3.89479048925979       -2.85103636342115        0.30027390592645
C            4.90609377127451       -1.43410582237380       -1.34617670709776
C            5.12531758242645       -3.43035205247755        0.55446326784386
H            3.01786429181102       -3.15655257995227        0.84901373341922
C            6.13470277167595       -2.01710576922412       -1.09484981194049
H            4.82074383884498       -0.64669759809478       -2.08239146941332
C            6.24652207552869       -3.01820434053047       -0.14455574616350
H            5.20896189679373       -4.20643880025734        1.30121643769570
H            7.00837400385958       -1.68650994593472       -1.63810422054739
H            7.20717694002470       -3.47113524678518        0.05339776059978
C            1.80070323684760       -1.98643525315772       -2.16105038439272
C            0.72755393409895       -1.23013098804124       -2.76446532928341
H            2.57606986280539       -2.17071838595170       -2.90942012740521
H            1.41833172464796       -2.94641090606036       -1.80561045260881
C           -0.14883482505968       -0.57707506678394       -3.25285491409120
H           -0.92456633708338       -0.02928889496150       -3.69772910209538
Cl           0.47629242731403       -0.48764313715253        2.56752465303996
Cl          -0.97032610890083       -2.21577814185857       -0.15151870628303
O            0.41148223210064        0.75282210203117       -0.34161921651315
O           -1.67176557793584        0.24008259533276        1.01614710761438
C           -1.43841400770019        2.10881059623061       -0.92246498951833
C           -2.38094021137186        1.03534469996544       -1.01806392955226
C           -3.52624750782113       -0.74614662272544        0.06206923646356
C            0.55291410570898        3.05241677532894        0.03371048837940
C            0.06365029170243        4.35995708062500       -0.23232682950279
C           -1.85113817123863        3.39306922082980       -1.32230604498496
C           -1.13542389486979        4.49896770998511       -0.98507078742581
C           -3.25026627544506        0.91738958790880       -2.12451785700908
C           -4.19906131832336       -0.05318781561030       -2.16920012878157
C           -4.38171708439370       -0.90983820679703       -1.05257134277648
H           -2.80082452253058        3.48654676136518       -1.82379988427654
H           -1.47761056671343        5.48723001115864       -1.24558239008868
H           -3.10035617645559        1.58324265125092       -2.95982288257367
H           -4.82585076424778       -0.18207463899477       -3.03742657076875
N           -0.20031208936545        1.97329441551650       -0.34728381780906
N           -2.52744429463100        0.17932909820585        0.02162713278496
C           -3.73405312592885       -1.53349656546342        1.21587745183311
C           -5.37679582470339       -1.89470921333262       -1.01530028877430
H           -6.01303515339398       -2.01983004756773       -1.87819128620000
C           -4.73772351327442       -2.49245057683519        1.21667630804045
C           -5.54394247625883       -2.68326686554288        0.10040678467402
H           -6.30944093390796       -3.44313762714613        0.11939331137336
C            1.80680185027964        2.93177611519426        0.66476444097735
C            0.77042230548314        5.47952151068614        0.21204786605508
H            0.36769505604281        6.45857717818798        0.00291554664318
C            1.96169162093137        5.34074910192608        0.89714649348021
H            2.49488063232663        6.20972313018796        1.24863820872588
C            2.48207748890873        4.07799383986125        1.10195065679224
H            3.43126786525192        3.94813697196200        1.59904794398059
H           -4.88404805238031       -3.08852905227984        2.10453279149820
C           -3.00386642352846       -1.36171827516476        2.41613348661102
C            2.53020277774867        1.73500840402503        0.86280383852647
N           -2.54906251536385       -1.30589496888203        3.46723672926615
N            3.27954025734832        0.88471055632958        1.03788104317310
