59
 energy: -108.594088701047 gnorm: 0.000636802500 xtb: 6.5.1 (b24c23e)
Si           0.14425813803870       -0.23543259462625        0.28624452012929
O            1.29844829254742       -1.28582201155736        0.65576404508482
C            1.85036053556609       -2.43265868046418        0.04990494194312
C            3.34657987392057       -2.25957250054209       -0.03059722509341
H            1.44077199346181       -2.55406463923788       -0.95885027644617
C            4.02371018599358       -1.51455464600694        0.92402781950856
C            4.06001765307028       -2.86843511677184       -1.05387432499466
C            5.39787944914475       -1.37476288302187        0.85071684109333
H            3.46524290648201       -1.03078672028626        1.71013903417271
C            5.43462340893760       -2.73336982478373       -1.12118219664968
H            3.53361564202898       -3.44335222965158       -1.80255696350281
C            6.10638029754023       -1.98532188941095       -0.16939533285447
H            5.91676151530442       -0.78648014438870        1.59382803201350
H            5.98256834719423       -3.20661656400823       -1.92322158546214
H            7.17986312269884       -1.87527844543642       -0.22627117316820
C            1.49522216049161       -3.67093787325446        0.90036183349927
C            0.19395508795859       -4.20004840857181        0.55646467286781
H            2.25327055072018       -4.44262284598544        0.73917787106859
H            1.50603063645277       -3.37454798194707        1.95199455395450
C           -0.87382628832928       -4.63008160348559        0.23063105324870
H           -1.81155691504154       -5.00595924389712       -0.04996492649320
Cl           0.94134970167709        1.01103662717825        1.84094974514548
Cl          -0.80498090322975       -1.48547300773032       -1.24276689970875
O            0.21975930440558        0.99168171284652       -0.93228848328571
O           -1.40007193763775        0.20785697355182        0.95357394588010
C           -1.41517007972207        2.58218595762482       -0.46133899750770
C           -2.47137218815329        1.60656230761859       -0.55919740522749
C           -3.39977273390858       -0.52608300294947        0.02270300226717
C            0.91548197752173        3.14513458337411       -0.40945369799302
C            0.60384554153502        4.48931753126418       -0.08778400709919
C           -1.73812145211473        3.93646082615540       -0.25119140752860
C           -0.76542550041057        4.86627899404302       -0.04081529393368
C           -3.60907190908789        1.87798330115318       -1.34328729107692
C           -4.58490002850518        0.94302619112629       -1.51289549060203
C           -4.50078626572418       -0.30646290191049       -0.84112285259659
H           -2.78060072343420        4.20271328631833       -0.17954980902806
H           -1.01750269040763        5.89089415726916        0.18133757577417
H           -3.64727269772601        2.81772149981533       -1.87075542675661
H           -5.42325848216264        1.12936821500250       -2.16506933777163
N           -0.10006171211987        2.25932003057507       -0.59095381210116
N           -2.43961935392475        0.43068446941570        0.12224088849170
C           -3.33474799893794       -1.71735369522558        0.77443715126368
C           -5.46551252899903       -1.30885712911140       -0.99072969940678
H           -6.29068660372575       -1.13741994039017       -1.66474512119938
C           -4.31817810010172       -2.68749405266762        0.59935193458260
C           -5.36527019097124       -2.49199225842831       -0.28952684841621
H           -6.10848425458921       -3.26337799503649       -0.41790423262867
C            2.26510679484037        2.76514144842965       -0.55832971693310
C            1.64144816011382        5.39643899206372        0.15325440062378
H            1.39053719385383        6.41348508574645        0.41238100056656
C            2.95856197564946        4.99926501195862        0.06096188828797
H            3.75277530985340        5.70157600080906        0.25971198909607
C            3.26809351675682        3.69876350041816       -0.30867183175636
H            4.29663639325830        3.38867330849239       -0.41241364597184
H           -4.25113252564676       -3.59745256925563        1.17628295833591
C           -2.34486021958447       -1.98511693514423        1.74972603972360
C            2.68731900160872        1.49016737994562       -1.00409908264946
N           -1.64123375224382       -2.30073737787407        2.59819546026652
N            3.15718636783146        0.52633232077783       -1.41085080300315
