59
 energy: -108.590179746876 gnorm: 0.000891202221 xtb: 6.5.1 (b24c23e)
Si           1.07508622100401        1.34891960098613       -0.46002456078952
O           -0.51711096579544        1.26464749505414       -0.36836917340435
C           -1.59167937358699        1.67601252964368        0.45706803097104
C           -2.83480073980600        1.76482139365531       -0.39190939847424
H           -1.72511622258674        0.90245896610474        1.22379070000356
C           -2.77994023799822        2.31719570268487       -1.66413796637874
C           -4.04508030361629        1.29077152427517        0.09570814931209
C           -3.92154250493327        2.38387011473367       -2.44257342399961
H           -1.83673380448747        2.67718673012152       -2.04676470147905
C           -5.18610286555673        1.36128593050386       -0.68297387680494
H           -4.09198805744265        0.86246077085232        1.08699816947428
C           -5.12550999298655        1.90528790426314       -1.95456672429201
H           -3.86972372868121        2.80760787244265       -3.43410888773726
H           -6.12164160035619        0.98404338121359       -0.29758904810979
H           -6.01432359016311        1.95251180292685       -2.56542419681123
C           -1.29896117521138        3.00458313929459        1.17152556463693
C           -0.22645378213533        2.82638615089201        2.12874969794482
H           -2.20893514278714        3.33033212992726        1.68169349385941
H           -1.01793188042977        3.76009048313254        0.43362678115793
C            0.67742202197746        2.60811704576393        2.88243702537165
H            1.49050151369760        2.46727405986255        3.53055450768337
Cl           1.46310555004943        0.50113403286311       -2.23356256402247
Cl           1.87998532092289        3.16072854762475       -0.26324343853984
O            1.81174428567466        0.42743067656955        0.71669199352233
O           -1.03535269107787       -2.61970213372525       -1.05996385801160
C            1.32503971215431       -1.81751580194311        0.11934182594760
C            0.04260878601390       -1.70112456045743        0.74964930708169
C           -2.30776479105661       -2.01023305033994        0.71442709922098
C            3.59001317663101       -0.97390981599216        0.10276719508708
C            3.99284224044754       -2.03949166279896       -0.73546425717479
C            1.70742028516113       -2.84095741336068       -0.75194848519604
C            3.00004564961954       -2.95038688207845       -1.18847917931406
C           -0.06618165761476       -1.17229469695359        2.05642854581266
C           -1.25906924199424       -1.10115431200017        2.70385568173821
C           -2.43606691206818       -1.51836523229558        2.03217558453188
H            0.95286636622813       -3.54198822268600       -1.06933527798392
H            3.28541717509206       -3.73549482987743       -1.86928688950248
H            0.83904894496132       -0.85573947531825        2.54873105491470
H           -1.32546712536356       -0.72825466758600        3.71329101016556
N            2.27342309176767       -0.87164251061626        0.46786367822944
N           -1.08182368970721       -2.12959379353725        0.10638484288557
C           -3.46035214360632       -2.39095488262309       -0.00837111838016
C           -3.71359782211376       -1.44926549019278        2.60776822004959
H           -3.80422833653987       -1.08126469856934        3.61906155953697
C           -4.70642051564212       -2.29455825004611        0.58996743811056
C           -4.82802936963450       -1.83456426887976        1.89875974795777
H           -5.80557193103675       -1.77535014972046        2.35226643266495
C            4.53946811599961       -0.04577289013534        0.56026707391916
C            5.33858799147773       -2.12800028415733       -1.11126467437836
H            5.64052843069962       -2.93469601826716       -1.76112741583358
C            6.26243553864213       -1.19700487553249       -0.67569285665739
H            7.29353483853598       -1.27524930630071       -0.98368058648590
C            5.87424325250667       -0.16472633227234        0.15844379879377
H            6.59075757145664        0.55935584376638        0.51465592502307
H           -5.58141206134194       -2.58358735408287        0.02823138548841
C           -3.39373178570538       -2.86721812076676       -1.34195755172471
C            4.20777380736191        0.97438234674752        1.47816322100728
N           -3.56900787992274       -3.26973322688191       -2.40340202183065
N            4.01640603489464        1.78063103408815        2.27227639121614
