59
 energy: -108.592011178316 gnorm: 0.000986332337 xtb: 6.5.1 (b24c23e)
Si          -0.47938756894150       -1.22949414001715       -0.36321484679512
O            1.10202568581687       -1.16877806269082        0.02524705428190
C            1.87667664862685       -1.70202309445221        1.08398198013876
C            2.40133203083180       -0.48765051987284        1.81991428874897
H            1.22352049283110       -2.28533574443883        1.74521973362550
C            3.72425252319626       -0.07180516133553        1.78278763284807
C            1.46467171257201        0.30729876473223        2.47587004171756
C            4.10251997861053        1.11545304226210        2.38913389716334
H            4.47446026283039       -0.66678826767324        1.28552005821072
C            1.84057144300140        1.49739529660047        3.06858027777844
H            0.43464215137261       -0.01724826816747        2.50802061938287
C            3.16364509947831        1.90676395742696        3.02489067258642
H            5.13784117699626        1.42273801913944        2.35855391385421
H            1.10183155185550        2.10445340443748        3.57155188916285
H            3.46075647691208        2.83485605879873        3.49109046047537
C            2.94861684131785       -2.63010698209635        0.50281050217149
C            2.32024942580464       -3.74999552836155       -0.16890207863717
H            3.58413918657011       -2.99307117022181        1.31490571359836
H            3.55684262148663       -2.08451061630881       -0.22392145650191
C            1.76453220513059       -4.64472582325806       -0.73480815325616
H            1.28242078836269       -5.43545583454036       -1.22585005442011
Cl          -1.64958908174466       -1.81698755826326       -1.94928804275457
Cl          -0.98962478376964       -2.87930485210552        0.84445987447674
O           -1.32411823038977       -0.07996018905041        0.65184025589371
O           -0.06598854958097        0.17386210581949       -1.53193716527025
C           -1.55789211619641        2.02570012346920       -0.35870314677899
C           -0.12854488631149        2.18333534160552       -0.42617290169309
C            1.95840033433466        1.27684168511845       -1.13177714430769
C           -3.46586748509886        0.67521180284983        0.12943667869941
C           -4.30681321154825        1.58306909325029       -0.56119575318198
C           -2.40333313403806        3.03158245386536       -0.85507219615058
C           -3.73612177942793        2.79942441417968       -1.02636471215956
C            0.51643768736030        3.33519557942295        0.05101968663887
C            1.87599563044888        3.42021226372647        0.03002661764283
C            2.64189095762327        2.38007145127932       -0.56106731721059
H           -1.94828942528327        3.94822486760378       -1.19520840883753
H           -4.37078206137773        3.52721316093775       -1.50533149284762
H           -0.08824277165371        4.10846626876027        0.49752112116085
H            2.38815845493109        4.26834827013204        0.45482050938143
N           -2.11826655293968        0.88485180040908        0.12410313962809
N            0.60596679488211        1.21061800604115       -1.02026404511456
C            2.69285364999506        0.29283566887002       -1.82641609006696
C            4.03902408001650        2.42693440084275       -0.62378678961473
H            4.54863676940438        3.26384736949646       -0.17221182859663
C            4.08154544757993        0.38257069461234       -1.87314645334805
C            4.75061811506750        1.43123324940446       -1.25901148305256
H            5.82792885830698        1.47379234531616       -1.29840945099933
C           -4.04726094954020       -0.39530450063298        0.83809966969622
C           -5.66398746626748        1.27729361652024       -0.70496492525158
H           -6.29250306224841        1.95783952272900       -1.25815953149980
C           -6.19301342853938        0.13372423558897       -0.13958610583392
H           -7.23490392939779       -0.10742786111553       -0.27971560760897
C           -5.40375662942495       -0.66943875458393        0.66836861441451
H           -5.83140568103444       -1.50679256382500        1.19775632595483
H            4.63078125138985       -0.38005446927437       -2.40552423311718
C            2.09822107336973       -0.78009049880544       -2.53202566411158
C           -3.36873849290865       -1.06503220383938        1.88231904968058
N            1.76176083901563       -1.66528463190475       -3.17789960182220
N           -2.95660296966890       -1.51580303841644        2.85237440182821
