77
 energy: -129.335365345680 gnorm: 0.000887852848 xtb: 6.5.1 (b24c23e)
Si           0.08735923800363       -0.03766423659655       -0.01839139728626
O           -0.58966762785993       -1.49327866460218       -0.20023426048781
C           -1.48571728004618       -2.08013071507217       -1.10825002650590
C           -2.55657689064246       -2.82080898758342       -0.34373218147706
H           -1.94699969248403       -1.29989809890845       -1.72622612518728
C           -2.38941170266057       -3.15013120946207        0.99299012476387
C           -3.71712894894227       -3.21249216028141       -1.00183637156189
C           -3.37410976527120       -3.85371847329885        1.66507599108826
H           -1.49169246924101       -2.84013807819490        1.50383541293882
C           -4.69711306478617       -3.92027156723521       -0.33023416680213
H           -3.85440261135287       -2.95145175962426       -2.04235358272820
C           -4.52800148046602       -4.24153782759763        1.00705150746196
H           -3.23671189692503       -4.10080980969192        2.70770749711719
H           -5.59728975475677       -4.21762043482676       -0.84910545148082
H           -5.29593708247652       -4.79089201325148        1.53212819948495
C           -0.73758874382093       -3.07546684280532       -2.02009047377688
C           -0.05619956195450       -2.41313395158501       -3.10893975733266
H           -1.45692220963516       -3.78995324346806       -2.42947770457174
H           -0.01508356162150       -3.61227638678136       -1.40181458121760
C            0.46907838445688       -1.85502019700540       -4.02736424648457
H            0.94569898175007       -1.35573717967690       -4.81662552104059
Cl          -0.48016070895311        0.66978682845135       -2.02233229009792
Cl           0.52171581673451       -0.64149291303860        1.99552367469245
O           -0.38369574226957        1.45600775036184        0.69213371403570
O            1.71425209439900        0.34619402230644       -0.40813425409180
C            1.08805073845587        3.06740735182201       -0.06010409518534
C            2.18029047393110        2.39643134167665        0.59919409753725
C            3.40338259541495        0.42462229674167        1.23259976107712
C           -1.26090213817494        3.25953489033901       -0.54931183761182
C           -1.00225770599364        4.42303200968772       -1.32181310194463
C            1.32993294979909        4.28119737171454       -0.72905781438137
C            0.32526940193590        4.92587445043384       -1.38145228205246
C            3.02425252507911        3.17953999360839        1.40906288592677
C            3.95211110520572        2.59742585823296        2.21453438292772
C            4.12932319580691        1.18837051957919        2.18609198798476
H            2.34623438278541        4.63747668805221       -0.78328685514080
H            0.51975544006145        5.81452926427728       -1.96070635115961
H            2.84178866467361        4.24144327126054        1.45135383857543
H            4.54143053771158        3.18504543736057        2.90013212604319
C            5.01331413748685        0.55559872754403        3.06439817115299
C            3.68242793058411       -0.94954596079694        1.10371656573326
N           -0.19315692822332        2.62080773505754        0.02060571212847
N            2.44645088746149        1.06449746882466        0.48646346106345
C           -2.58723832856488        2.80434795485709       -0.40741722778369
C           -2.04853858346916        5.05483644610134       -2.00066777591622
C           -3.32871820983370        4.55824514184225       -1.92056068816161
C           -3.58666228833676        3.45478742700851       -1.11929560546998
C           -3.01751838436903        1.71305058522919        0.48724405015216
H           -1.82976447330425        5.93257236399522       -2.58936305496446
H           -4.13464847155292        5.03387304747929       -2.45764141849873
H           -4.59897699168380        3.09284509406758       -1.01858767374746
C            5.19004983027182       -0.80724793456831        3.00890554327047
C            4.54530583488633       -1.53692799835535        2.02139732061346
C            3.22346171554912       -1.82683627117784        0.01160860222706
H            5.54531203354458        1.15642225724801        3.78594811122781
H            5.85050242402305       -1.30352616279802        3.70287864646684
H            4.73367890783763       -2.59619548593380        1.93236148281021
C           -3.76243280366145        0.65676927445119       -0.02594189724653
C           -2.78018449242991        1.77242550720685        1.85749302749213
C           -3.98219706464304       -0.27868208542738        2.16972706253610
C           -3.24845503157605        0.77413334682767        2.68947471463248
C           -4.24579780099143       -0.33049107506876        0.81237960566164
H           -4.82798377281267       -1.14357839593125        0.40653767913027
H           -4.34943637978754       -1.05918042059409        2.81888420791335
H           -3.04125598073499        0.81949845682815        3.74795908295519
H           -2.22251775311060        2.60155848417757        2.26858991003649
C            3.56146472990825       -1.54004148023053       -1.30777207297420
C            2.60612569689487       -3.03679314493040        0.30861198277208
C            2.69445143933021       -3.66395905053614       -2.00617616205107
C            2.34300811244153       -3.94885293126496       -0.69694789411008
C            3.29279287041384       -2.45300021955024       -2.30883640508862
H            4.05004755578496       -0.60535718967850       -1.54305978934918
H            3.56213292474769       -2.22571553452024       -3.32929511040918
H            2.49461978258736       -4.37822235891854       -2.79123483571338
H            1.87631927961568       -4.89365344859800       -0.45379141456690
H            2.32104910718903       -3.24517056313953        1.32885249635280
H           -3.94316034732464        0.60610579790018       -1.08996288236059
