77
 energy: -129.332548572945 gnorm: 0.000425577609 xtb: 6.5.1 (b24c23e)
Si          -0.08849705811974        0.15256427400282       -0.95062668542306
O           -0.93268121221462        0.95093757350300        0.17540006703217
C           -0.44952315662291        1.96820163669253        1.01943856677314
C           -0.69027294685332        3.34209973382421        0.44775666551646
H            0.62775841682330        1.83004834597477        1.16703926109775
C           -1.53096254468174        3.53438286249228       -0.63730336445620
C           -0.05405245292226        4.43786737102857        1.01884502297383
C           -1.73354010195393        4.80602799222607       -1.14533660273695
H           -2.00991049299560        2.68207608397633       -1.09278928576699
C           -0.26217487090572        5.70763800904702        0.51425321781232
H            0.61635454261199        4.28803529694286        1.85303456515725
C           -1.10414097809135        5.89508364871579       -0.56974058276576
H           -2.38169005890472        4.94241985331775       -1.99839572680396
H            0.23904568111909        6.55348387200494        0.96252253935198
H           -1.26121756714906        6.88698727912071       -0.96774214566573
C           -1.15487973554804        1.80120802240406        2.37892302575233
C           -0.83289085462828        0.51408029374366        2.95416366152110
H           -0.83657021861840        2.60048341623837        3.05169610166509
H           -2.23481599210653        1.87215823478097        2.22685443422525
C           -0.54955234662360       -0.56560471710546        3.38480131318794
H           -0.30479482626602       -1.50224276225924        3.78831334885156
Cl           1.38616323178031        1.58109652767501       -1.59424826591088
Cl          -0.99791773965676        0.25394271003619       -2.82979570596847
O            1.14870429076695       -0.57030322103094        0.10756576878717
O           -0.96058192235654       -1.37251621885028       -0.90188216150653
C            1.30950413477450       -2.84321110923837       -0.33605808459679
C            0.05613635095822       -3.05065157613106        0.33366033691448
C           -2.11501777047585       -2.24883240636593        0.96415005600760
C            3.18129159738097       -1.39524049292814       -0.73556654059698
C            3.81211390632027       -2.41176859465757       -1.49851054645245
C            2.00393692010276       -3.90684567696970       -0.94087650262323
C            3.17895957305461       -3.68305351968004       -1.59087759508630
C           -0.05341117154384       -4.11163305800210        1.25143746502360
C           -1.09681644686515       -4.15281541170943        2.12248124910422
C           -2.12111699103300       -3.16748151932139        2.05008535886586
H            1.53172741715874       -4.87615125705491       -0.95682899443823
H            3.66181532777127       -4.46628746031050       -2.15301839257137
H            0.76090084937476       -4.81589818999520        1.31554541513023
H           -1.15095357772252       -4.90563812267709        2.89309344503769
C           -3.13743545261257       -3.11045517079874        3.00695712724056
C           -3.23510896178853       -1.41202015569140        0.77233292089960
N            1.89066330337360       -1.61265045594159       -0.32610576181118
N           -1.00362931400665       -2.21447965852549        0.16388435010638
C            3.89025495353420       -0.22095997767149       -0.40704073625995
C            5.05361653608532       -2.15428313390826       -2.08642309019021
C            5.67484296954358       -0.94036664107302       -1.89025472652763
C            5.11589523910003       -0.00902382869023       -1.02617418060899
C            3.47903305772810        0.70224654473764        0.66299998798526
H            5.51659971441965       -2.92394175950794       -2.68470407979223
H            6.62233874166503       -0.73277366960759       -2.36294865414364
H            5.66003736105226        0.89246812609450       -0.79035205743556
C           -4.14069454188578       -2.17422480964939        2.89876296164723
C           -4.19703692478551       -1.36423120307240        1.77452378442918
C           -3.54568257682918       -0.67919433676951       -0.46664263228944
H           -3.11784429960300       -3.80957407950377        3.82927438715532
H           -4.90790634915005       -2.10450682304693        3.65419662660499
H           -5.03565964241331       -0.69729677372376        1.64041152397330
C            3.59437297050162        2.08021959079084        0.50126832591242
C            3.06218194632376        0.20169787008078        1.89501954295385
C            2.84510522508757        2.42929617406328        2.75427695748587
C            2.74303173286440        1.05943929019242        2.93040245855228
C            3.27373904717009        2.93593957439750        1.53824995897293
H            3.35349337450801        4.00310967873372        1.39213834848303
H            2.59269648931426        3.09766716940240        3.56520873400742
H            2.40906229166499        0.65835262377613        3.87588585150441
H            2.99813626275112       -0.86660071579590        2.04822903097692
C           -3.64308546147920       -1.37212902909780       -1.67044255772430
C           -3.89912867623300        0.66469298818284       -0.43069373425533
C           -4.40204699143610        0.61606934906777       -2.77463566433515
C           -4.31404665190012        1.31035893090639       -1.58069302781454
C           -4.06790179164579       -0.72664051974138       -2.81511586663743
H           -3.38935101982170       -2.42213104999718       -1.70389011212519
H           -4.13274396065001       -1.27180571698824       -3.74445555731577
H           -4.72396663144707        1.12062052654820       -3.67291007126800
H           -4.57265666489532        2.35904848136000       -1.54301676123572
H           -3.82413686131086        1.20904426898751        0.49906721785577
H            3.89620335207096        2.47938859801943       -0.45380452739919
