77
 energy: -129.336769489032 gnorm: 0.000947564951 xtb: 6.5.1 (b24c23e)
Si          -0.37721829814619        0.16424819136916        0.99423284558157
O           -0.06624969234300        1.53366157407558        0.19508080055328
C            1.02597940713024        2.40856377509958        0.27796035935176
C            1.96981356577428        2.16462717703985       -0.87435420077169
H            1.55463164605474        2.24505422471276        1.22731272507914
C            1.56072286920375        1.43350538841530       -1.98068856339318
C            3.25947643027449        2.68139754433276       -0.84188565940894
C            2.43049232751126        1.21277986094901       -3.03390486199462
H            0.55429014824494        1.04359476883859       -2.00347148241833
C            4.12709645412112        2.46267346176617       -1.89661895328081
H            3.58073025093306        3.25766792263724        0.01489788466426
C            3.71512553001740        1.72544977844957       -2.99421089812601
H            2.10392975837774        0.63917305569289       -3.88950630916992
H            5.12853723573343        2.86692728171132       -1.86170486157955
H            4.39337177838106        1.55469076209574       -3.81718584609902
C            0.49284832751193        3.85324787027627        0.24396984918564
C           -0.27899832432283        4.13021677568937        1.43574677415742
H            1.33358458984221        4.54801186159942        0.17537853089946
H           -0.14143413960840        3.96256866242154       -0.63872803347562
C           -0.90826162495306        4.32299544530995        2.43465099661414
H           -1.46261590668382        4.49358774676573        3.30830236419575
Cl           0.82150149606110        0.50101030818884        2.73805724301004
Cl          -2.07844661864779       -0.02605996187348        2.19314029393338
O           -1.35100853279942       -0.26299979426494       -0.47228572639763
O            0.61452382776958       -1.22437950883555        0.73866713223081
C           -1.54089676334185       -2.54853124237375       -0.58732835037750
C           -0.16955583803523       -2.60202684740043       -1.01444490248379
C            2.10061807147071       -1.81429491991868       -0.98340617082730
C           -3.47997660006761       -1.20797957866972       -0.16804577189134
C           -4.23243251030983       -2.37812347855884        0.10958071157929
C           -2.31075654332170       -3.71884571765331       -0.45511845295346
C           -3.60759137341922       -3.64454601302701       -0.05011076138893
C            0.11903661373767       -3.37765187655729       -2.15300629127822
C            1.29807604853743       -3.22579817327852       -2.81320989212036
C            2.30631857901176       -2.38151584219885       -2.27058691938267
H           -1.82101766934609       -4.66956761537766       -0.59385609165216
H           -4.17980404866349       -4.53703247879844        0.14767182089584
H           -0.66707927791506       -3.99820827398721       -2.55248510678034
H            1.48504988500535       -3.73116351437517       -3.74688574328818
C            3.50514454646810       -2.15723480165759       -2.94995180164375
C            3.19681298301556       -1.22078194923666       -0.32235342736841
N           -2.14326130659036       -1.34632208619033       -0.41834829368823
N            0.83370804753386       -1.87279180547501       -0.44652700540969
C           -4.11795383886035        0.04981371904551       -0.17401229451342
C           -5.56687695580970       -2.25705869128587        0.51223585925563
C           -6.14970287228045       -1.01596037437303        0.61936731425487
C           -5.43511259947398        0.11812032324273        0.25122450779737
C           -3.49517978709690        1.27865661569334       -0.69647229762312
H           -6.12455480682333       -3.15301267812529        0.73820776785310
H           -7.17095563818020       -0.92079006445613        0.95455393354607
H           -5.91794901047481        1.08362638376466        0.26725534747764
C            4.50677224692947       -1.41429733685487       -2.36449452427747
C            4.36106432673321       -0.99617442447473       -1.05266963629617
C            3.28193736605511       -0.98649469016358        1.12709141929560
H            3.63205316602080       -2.58412610402008       -3.93303802477519
H            5.42386109556424       -1.21512372342552       -2.89646818437810
H            5.18930327116858       -0.51936136800836       -0.55158469946820
C           -3.47342364854124        2.44027340533897        0.06581623270038
C           -3.01018969096731        1.31245369745152       -2.00129486179272
C           -2.49086203629938        3.63984665823751       -1.76314316169857
C           -2.50637831364180        2.48523300715472       -2.52802151512888
C           -2.97163553111317        3.61385980217733       -0.46510257191340
H           -2.94683514389547        4.50784977126592        0.13979965422187
H           -2.10654158048338        4.55958175590999       -2.18211945693084
H           -2.12747860794808        2.50128631226713       -3.54020219884916
H           -3.03659963159187        0.41521926248588       -2.60456074715901
C            3.85537778393617        0.17706747100747        1.62989683591215
C            2.94590318442010       -2.00893971346455        2.01160017837301
C            3.73207774346377       -0.69724383508169        3.85828020656917
C            3.16776961706811       -1.86147010894017        3.36654219648281
C            4.07188194302455        0.32231556676025        2.98668776218442
H            4.10511115162998        0.97843592075949        0.94978371132508
H            4.50087562830992        1.23777860428964        3.36632861017615
H            3.89709530205706       -0.58132265886727        4.91871959822082
H            2.89665607983251       -2.65904563289322        4.04254101434108
H            2.52118349919083       -2.92750231802883        1.63119612440102
H           -3.82594406112753        2.41029348788318        1.08542494713263
