77
 energy: -129.335326127543 gnorm: 0.000516976084 xtb: 6.5.1 (b24c23e)
Si           0.06499848361398        0.02447604333877       -0.00560352226648
O           -0.61064986583882       -1.42232009967224       -0.25059259858655
C           -1.46772718106269       -1.98275775668758       -1.21113188912834
C           -2.57962682664930       -2.72622727399245       -0.51015586989287
H           -1.89205271111566       -1.18648793310025       -1.83503412773722
C           -2.47603035104756       -3.08084500085266        0.82660827678977
C           -3.71313146630819       -3.09393863318879       -1.22640301483286
C           -3.49659247801504       -3.78578258530061        1.44126387015743
H           -1.59920073401742       -2.78955663810871        1.38260614038653
C           -4.72904993680044       -3.80330847711584       -0.61206332093054
H           -3.80096268741130       -2.81366611350381       -2.26717505939151
C           -4.62337729377729       -4.14995428403952        0.72534759011812
H           -3.40834401346986       -4.05244022437004        2.48430049478811
H           -5.60769935508848       -4.08226281404295       -1.17598930102843
H           -5.41933567107842       -4.70055446208252        1.20549239705592
C           -0.68629123860910       -2.96825118299758       -2.10582028797904
C            0.04342788156335       -2.29466146228894       -3.15603156427089
H           -1.39124942497496       -3.67315052817544       -2.55559627433622
H            0.00739192052110       -3.51797036079374       -1.46595106384001
C            0.60808486555877       -1.72462276679683       -4.04308831877151
H            1.11452570710218       -1.21201883889502       -4.80463569975867
Cl          -0.38333995168732        0.77041326752138       -2.02381137919722
Cl           0.39010350750364       -0.62245508589878        2.01778254303245
O           -0.44369657039777        1.50488628131496        0.70709290602661
O            1.71013155769195        0.41306675665632       -0.29554808578785
C            1.08602995285387        3.12058981478873        0.08833598032954
C            2.12777991511502        2.42489826908715        0.80257333302595
C            3.29861351493084        0.42496182447959        1.44500068132745
C           -1.22041653903600        3.33381641419243       -0.56312968298410
C           -0.90014903884915        4.50022633847089       -1.30696478204054
C            1.38019504228089        4.34368952102669       -0.54059255181296
C            0.42920074109384        4.99962611701721       -1.25976403952977
C            2.91704610059858        3.17405535153012        1.69449361389296
C            3.78369905430219        2.55714725738009        2.54194405729481
C            3.95843494043300        1.14914309952875        2.47418003084108
H            2.39870090910636        4.69685496415915       -0.51240563551478
H            0.66961230974798        5.89384858913206       -1.81258463736347
H            2.73677199338514        4.23516591965926        1.76026445420365
H            4.32506283562460        3.11596318651748        3.28842765522690
C            4.77644897608465        0.47795039721424        3.38739561576682
C            3.58330062760502       -0.94436755884908        1.28126422843607
N           -0.20000705647542        2.68127687252287        0.07370448176377
N            2.39481558086605        1.09636386650502        0.66190277999809
C           -2.55612818258519        2.88701777155472       -0.51563802568328
C           -1.89108174572206        5.13655687448086       -2.06082210566027
C           -3.17439993819335        4.64145867504665       -2.08084862938196
C           -3.49715958478818        3.53958788288756       -1.30076474133226
C           -3.04979137392255        1.80798205912341        0.36054100749688
H           -1.62697652021743        6.01613609316491       -2.62775736420779
H           -3.93530258035871        5.11909250341785       -2.67859547633756
H           -4.51577572695357        3.18214276963759       -1.27561016923429
C            4.95268532974086       -0.88278243886546        3.29156312294277
C            4.37850390329826       -1.57112381042454        2.23316841735716
C            3.19652568995052       -1.77122447921541        0.12422751290571
H            5.25776906525642        1.04718773281498        4.16775228632787
H            5.56054690599721       -1.40889875243844        4.01115648044763
H            4.57134920526260       -2.62689569001021        2.11629325085532
C           -3.76191007611292        0.74395595374916       -0.18141889567971
C           -2.89809175550380        1.88927731545803        1.74219428401639
C           -4.11653515411413       -0.15768383110867        2.01140761189904
C           -3.41810440905530        0.90487673262699        2.55959969041395
C           -4.29508439579762       -0.23124281636901        0.64119228007490
H           -4.84962073840965       -1.05213169200862        0.21292014950853
H           -4.52221125654172       -0.92873612759620        2.64897097548981
H           -3.27870453798369        0.96824239204314        3.62840662295393
H           -2.36647127271491        2.72569892764911        2.17300227710691
C            3.60834298714037       -1.42086724153688       -1.15846699960243
C            2.56570013689528       -2.99377003643228        0.32567329370440
C            2.78120896575677       -3.50471215323561       -2.00921134835031
C            2.36025695565713       -3.85449327400107       -0.73692632516465
C            3.39535421436548       -2.28172253280890       -2.21723096600422
H            4.10917070150685       -0.47692166494597       -1.31960921561600
H            3.71992963253441       -2.00376917115439       -3.20856155848681
H            2.62405626871417       -4.17809127943440       -2.83861565335156
H            1.88384686406107       -4.81040918946181       -0.56722802319823
H            2.22402753011546       -3.25224513419776        1.31660821075604
H           -3.87680213326360        0.67647856027717       -1.25367840043613
