77
 energy: -129.265307461987 gnorm: 0.000805106185 xtb: 6.5.1 (b24c23e)
Si           0.34779523137734       -0.98016460089671       -0.90165931511463
O            0.85496433870393        2.62266777904176        2.12598774312747
C           -0.01733124284089        2.77491557619886        1.30012761220800
C           -1.39421658414447        3.18157996145624        1.59673041108943
H            0.17194566854034        2.59345800028784        0.22943349260195
C           -1.72598123190736        3.67927870866716        2.85773903966651
C           -2.37878900841173        3.06704915135336        0.61585565546193
C           -3.02239496274970        4.06707585166666        3.13016129849450
H           -0.94833820998466        3.76373770141680        3.60256778488818
C           -3.67787783611210        3.44179841176466        0.90229561825853
H           -2.12071118259674        2.65702556743737       -0.34893270458858
C           -3.99905619228671        3.94680497821342        2.15257435428151
H           -3.27694543056394        4.46405230738562        4.10216287589137
H           -4.44311126835357        3.34388589990692        0.14746247596186
H           -5.01386252563850        4.24927385567048        2.36721161791378
C           -0.36432826970263       -0.36720282412231       -4.75124788733906
C           -0.04187074927953       -1.05639480686450       -3.70638250703510
H           -1.38772331358686       -0.28673291870851       -5.07760468802141
H            0.37136407354647        0.15963577310396       -5.33514330316024
C            0.26313438337385       -1.72321278095220       -2.63847455762568
H            0.53767259110115       -2.76299504087223       -2.72712949685679
Cl           1.90962465793698       -2.48635992393069       -0.38459765225833
Cl          -0.94143663858876        0.67776163308438       -1.46687855228871
O            1.11785959604035        0.21595700667757        0.05881883662588
O           -0.65946410680179       -1.64067764740635        0.30569659448852
C            1.00234981792602       -0.45534968823397        2.26366212833800
C           -0.43361426656079       -0.35659033542593        2.24718346587610
C           -2.58243617195834       -0.61270122593935        1.17671242736557
C            3.13403976762956       -0.17721365221824        1.18778029676627
C            3.79301674337956       -0.63406583560697        2.35729516121198
C            1.65747350120600       -0.81391092780311        3.45874869780930
C            3.01043134842107       -0.93769302644043        3.50237958363242
C           -1.05867944707316        0.27294535820715        3.33988957096727
C           -2.38850210633326        0.55428823157028        3.31780821456859
C           -3.17991357405844        0.16655068353944        2.20265725053798
H            1.05183551063092       -1.06740819533875        4.31383576932280
H            3.50724689158048       -1.27960658231511        4.39677198371742
H           -0.43442777037616        0.61886292631582        4.14691134142555
H           -2.85585765403336        1.09723812173181        4.12313769972817
C           -4.52797272469226        0.52167852260277        2.11576119432916
C           -3.39102098171622       -1.11278722236180        0.13636074131436
N            1.76876983882084       -0.13724847832430        1.19169447905810
N           -1.23058320234779       -0.83756769061028        1.24555717859155
C            3.89597302687905        0.19713695277819        0.06328961513419
C            5.18471047414624       -0.77799184847341        2.35717003716081
C            5.91430208377108       -0.47893712363791        1.23108652607357
C            5.26864651684553        0.01461853991728        0.10334760514595
C            3.32674810337040        0.81412444498681       -1.15262127218424
H            5.66942004362101       -1.13446065775934        3.25325532474141
H            6.98562312821511       -0.60802106326113        1.22305515431802
H            5.84406474838979        0.28397733107852       -0.76998622167546
C           -5.28311341262829        0.12384357159834        1.03628802504339
C           -4.71613179648392       -0.69783611807997        0.07399556317579
H           -4.95760374728564        1.11643484428708        2.90691912689308
H           -6.31817388804503        0.41768742827230        0.95359737985570
H           -5.32130185714027       -1.06225876771720       -0.74250978397197
C            3.38587120190529        0.14493155870242       -2.36793065955361
C            2.78146204956319        2.09327471884380       -1.09905663582683
C            2.31296134074345        1.99713741782857       -3.44899713351682
C            2.27194469583169        2.67679330804793       -2.24278854979063
C            2.87404361916319        0.73390851940916       -3.51011158893029
H            2.91326587119916        0.19893196592873       -4.44740403430006
H            1.90590667224779        2.45521150957724       -4.33824455332200
H            1.83673953078491        3.66429262192873       -2.19345605226375
H            2.74936524751747        2.61695456958358       -0.15441086177695
H            3.80464073876314       -0.84968209290287       -2.40481205633167
C           -2.97887403754622       -2.11307638810960       -0.86803022992373
C           -2.57400382148740       -3.38449543697475       -0.47138041458242
C           -3.10734722312011       -1.83349274575959       -2.22341274518433
C           -2.27521181684999       -4.34670340711033       -1.41593109410127
H           -2.49307145328176       -3.61510950370043        0.58099399926043
C           -2.80782331782140       -2.80007569422427       -3.16564333363328
H           -3.40961904514293       -0.84419368967504       -2.53123857194088
C           -2.39037023944242       -4.05707451684224       -2.76536122892376
H           -1.95343260968613       -5.32731377546743       -1.09773361542371
H           -2.89809246383455       -2.57156461483700       -4.21694221846268
H           -2.15445366842900       -4.80999446027959       -3.50273742909229
