77
 energy: -129.332104089975 gnorm: 0.000409209745 xtb: 6.5.1 (b24c23e)
Si           0.27882039136299       -0.76652381711996       -0.94344526563715
O           -0.02770122959450        0.61649884805271       -1.72541351611642
C            0.26133486158677        1.95674584441117       -1.39852074668310
C           -0.72196342679078        2.46191006635742       -0.37474999807080
H            1.27487264418487        2.01058837826490       -0.99915795470061
C           -2.08561436109064        2.36985821476288       -0.62769846480870
C           -0.29212059808768        3.01376630039726        0.82296067119977
C           -3.00123109140615        2.87025208983151        0.27877820072092
H           -2.42216612485904        1.89815484759120       -1.53892814253841
C           -1.21011115896434        3.49443697695698        1.74129037692093
H            0.76597276578446        3.06487617970039        1.03062542119635
C           -2.56475018455424        3.43885355914253        1.46355863807298
H           -4.05774416750910        2.81633204906195        0.06267708415511
H           -0.86617353183607        3.92169868229736        2.67234270061115
H           -3.28027829885650        3.83298109079623        2.16999963906899
C            0.17089925438477        2.79305405761854       -2.68795155225108
C            0.98921003383069        2.22823989739598       -3.73897752920973
H            0.49244874849734        3.81412187342600       -2.46524283446661
H           -0.86613067292358        2.81397766760232       -3.03127806612149
C            1.63330575251980        1.73504459903862       -4.61796044307906
H            2.20177442869361        1.30171249916818       -5.38539830431705
Cl          -0.71821689306874       -1.83237042780864       -2.45601322504021
Cl           1.93552566458316       -2.05019054722795       -1.08762523444491
O            1.19550793217459        0.15874570938212        0.39310041056804
O           -0.89429855951303       -1.29842124064555        0.19206118004294
C            0.88425707303307       -0.96432951374204        2.37528565447203
C           -0.49231956468108       -0.54447376841005        2.39223553325805
C           -2.66471535294226       -0.31800821485014        1.39641749319750
C            3.06172091907329       -0.86960464816791        1.40318850034751
C            3.52022404909115       -1.83862819045921        2.33328225657647
C            1.37477000127626       -1.77028957518656        3.41808860317545
C            2.64191548631424       -2.26327894518746        3.36506982667296
C           -0.97455654558719        0.02797082683381        3.58085951970141
C           -2.21974700781193        0.57164412970751        3.63627921319902
C           -3.09915050128202        0.42177679215925        2.53059733419204
H            0.68788263009972       -2.07105145908621        4.19312759248451
H            2.99509443699440       -2.97375687490429        4.09519413155394
H           -0.29245450032143        0.10856531821922        4.41220835242151
H           -2.56176271552385        1.10093229318326        4.51062723596365
C           -4.39595414710261        0.93765438269308        2.57935810445753
C           -3.61123459254922       -0.65783379334200        0.40842609743025
N            1.73071617904435       -0.54399806269090        1.40651815904947
N           -1.33480426807705       -0.67839683870149        1.32955428576139
C            3.98038263756815       -0.28696592038134        0.50834672493352
C            4.82640273884185       -2.32932638307306        2.23061620985160
C            5.66962803098461       -1.86302135326872        1.24946418146248
C            5.25517203698067       -0.82497331681866        0.42440864106147
C            3.72811888014849        0.96014533835623       -0.23262822041339
H            5.15431170138077       -3.07997738492148        2.93326990221043
H            6.66574233214466       -2.26495628975787        1.14844640776296
H            5.94693572338822       -0.39310534900657       -0.28302828942758
C           -5.27190748723303        0.71982338730927        1.53926985220125
C           -4.88337117764981       -0.09441085828816        0.48918927092421
C           -3.44230306962348       -1.69622134715528       -0.62141634181620
H           -4.69703332077670        1.49872707521182        3.45058430177557
H           -6.26809260152660        1.13426988344460        1.56470277070611
H           -5.59721966338864       -0.34962138305849       -0.27945424260920
C            3.95634672570718        1.04528873287538       -1.60148249625305
C            3.42487544961355        2.11810996184567        0.48020491135678
C            3.59829740592470        3.41745637101353       -1.52855439316576
C            3.36099291965068        3.33963710216793       -0.16600243257446
C            3.88775028558153        2.26773373142794       -2.24433112191558
H            4.06656888304357        2.32766019885708       -3.30621451300668
H            3.55700031716230        4.37213781806382       -2.03150102774144
H            3.13530045663722        4.23514008195906        0.39602315870039
H            3.26212946580945        2.05816646190325        1.54820885318872
C           -3.04491781465684       -2.97885909890682       -0.25333184643327
C           -3.84474633265700       -1.46479896299243       -1.93268946462367
C           -3.44386298885851       -3.76142025805341       -2.48411777939194
C           -3.84047562758184       -2.49012562711520       -2.85840989702901
C           -3.04284612190165       -4.00125965208476       -1.18139384418237
H           -2.75056873554067       -3.17500241121504        0.76841198294897
H           -2.72734928475581       -4.99088838529243       -0.88531593754013
H           -3.43759954347139       -4.56196653255570       -3.20793630398885
H           -4.13971960002328       -2.29434294640407       -3.87691477645419
H           -4.13689350742050       -0.46819156111651       -2.23154549528052
H            4.17364912890107        0.14489562051260       -2.15536768421622
