77
 energy: -129.331543910424 gnorm: 0.000663169105 xtb: 6.5.1 (b24c23e)
Si          -0.17777773040575       -1.05845113091954       -0.67163933520542
O            0.98137980568286       -1.94725917205020       -1.42952813251729
C            2.35508790863122       -1.71799068982732       -1.64601639194525
C            2.64587698284676       -0.30828244084370       -2.09647662192578
H            2.86779133627009       -1.89627541163119       -0.69167787384307
C            2.00281490035560        0.22704159027609       -3.20469356200689
C            3.51946977277748        0.49385240694702       -1.37228176863224
C            2.19479610086717        1.55192362727586       -3.55426968677849
H            1.32606651115698       -0.38732536796662       -3.77786103165117
C            3.71412905247099        1.81755521352926       -1.72243776152795
H            4.03161630463244        0.08375072677808       -0.51309041218167
C            3.04270247811302        2.35307903945149       -2.80881040791022
H            1.67288254229088        1.96022292165395       -4.40719452022360
H            4.38179728896622        2.43462021495251       -1.13762632911629
H            3.18254992658082        3.39123252418748       -3.07390923801218
C            2.85089560594742       -2.74743282973775       -2.67790527843796
C            2.81642252322357       -4.08317517110738       -2.12305876543110
H            3.87368542138719       -2.49357499069580       -2.97143710063009
H            2.20514259637562       -2.70524252351408       -3.55749492224777
C            2.78897487037625       -5.17275162809086       -1.62999614273226
H            2.74943689475363       -6.13556824110433       -1.21598675917077
Cl          -1.10991313746516       -0.22622985468799       -2.34330731656370
Cl          -1.19052498916027       -2.73041840752556       -0.08479818568809
O           -1.36495289822991       -0.09449239757368        0.52526139222072
O            1.01334519001095       -0.03409734446772       -0.03447152919761
C           -1.09531543814670        2.06974255601400       -0.26043841011657
C            0.21731417271366        2.19108497972030        0.28452351158276
C            2.07232698715984        1.27954901912650        1.53706273212878
C           -3.23931005451155        0.99950905478024       -0.27067219515373
C           -3.75025215487194        1.96434650679671       -1.17013634829412
C           -1.61543729169275        3.06872691203366       -1.12391816683280
C           -2.87656374729507        2.99200820378027       -1.61296645569034
C            0.75058465626870        3.48363367220073        0.49495050334864
C            1.92335863032398        3.67999689760570        1.15080167362013
C            2.60495980245402        2.57533493136084        1.73335124084556
H           -0.95000180756381        3.84291486344784       -1.46670584045376
H           -3.23341533093850        3.70444892463974       -2.33987770343856
H            0.18061173222855        4.33205555342612        0.15537891088046
H            2.32739145791939        4.67134162553287        1.28202024044169
C            3.77511614618526        2.74144456806993        2.47937588086336
C            2.69300164642791        0.17685838174740        2.15106610173538
N           -1.90630517100356        1.02325261537566        0.04495049430567
N            0.97688667569301        1.12299506708050        0.70594761138798
C           -4.09861333185985        0.01650745990577        0.26658358251342
C           -5.07451229539790        1.86468852094849       -1.60972012211525
C           -5.87725113900288        0.84146718046580       -1.16385773988196
C           -5.39493468312922       -0.05526638490024       -0.21604931109808
H           -5.44817960194848        2.60097787354563       -2.30472982953781
H           -6.89197986499693        0.74980265710353       -1.51963452727046
H           -6.05124683385860       -0.81192403789197        0.18701873180510
C            4.41528264046660        1.64990127411797        3.02255167753725
C            3.86640946863127        0.38599282598425        2.86748217345195
H            4.16815106804421        3.73774817189123        2.61409761716010
H            5.32824212706263        1.77583134350892        3.58416926719639
H            4.33912843742531       -0.46507524728070        3.33459019473423
C            2.13136856574424       -1.18516304861501        2.13970054762073
C            0.82771021555544       -1.41857530316400        2.56734198207926
C            2.93076097785398       -2.26699741332367        1.78199645497814
C            0.33357742025805       -2.70792010333395        2.62357839962322
H            0.19727123243535       -0.58985927738290        2.85616002655015
C            2.42447891811089       -3.55318748944105        1.81367528116246
H            3.94989157545399       -2.09482524807638        1.46225343167598
C            1.12599513325399       -3.77549579753879        2.23700235321638
H           -0.68187777480287       -2.87417257882047        2.94709507046513
H            3.04620075094235       -4.37921978276648        1.50204089861014
H            0.72555183533844       -4.77718169935802        2.25699189562233
C           -3.72405193873749       -0.84738995770121        1.39882046886692
C           -3.94502457386973       -2.21864254346875        1.35179332475002
C           -3.23136590477407       -0.27905965285950        2.57154951781181
C           -3.66188867170806       -3.00915172942350        2.45015017728653
H           -4.30749150827869       -2.66817496889929        0.44079294122137
C           -2.95447873222719       -1.07067571142076        3.66843550323328
H           -3.07548037261178        0.79031499661785        2.62364953501574
C           -3.16833847246088       -2.43873238616283        3.61049280677107
H           -3.82086815663549       -4.07536066314910        2.39556065678212
H           -2.57073300276943       -0.62072937803255        4.57335278295833
H           -2.95019267732001       -3.05585689712137        4.47058912941106
