77
 energy: -129.336808357517 gnorm: 0.000747130557 xtb: 6.5.1 (b24c23e)
Si           0.06069674234122        0.14155266311241       -0.02956132004615
O           -0.88172217663659       -1.15764894742941       -0.22887173114892
C           -1.21311526722056       -2.27598440757401        0.55869465057741
C           -2.49892150796132       -2.87070387187271        0.04809398832050
H           -1.32653635987951       -1.97098264739917        1.60564736254158
C           -2.82673753439523       -2.78432516299540       -1.29761494086340
C           -3.33993554717341       -3.55733410427201        0.91356297390796
C           -3.99066783341087       -3.36497405335644       -1.76943357941511
H           -2.17404841866150       -2.24136080459414       -1.96356718836243
C           -4.49830153889064       -4.14515806846271        0.43820623845536
H           -3.08247463336708       -3.62865194299943        1.95982642455697
C           -4.82785470976146       -4.04803182146873       -0.90364314513557
H           -4.24428776251006       -3.28525275797000       -2.81662851233501
H           -5.14940491989863       -4.67676180819695        1.11707753084175
H           -5.73634370327544       -4.50220948592676       -1.27235705432237
C           -0.08427608287560       -3.31829435977742        0.44799863183053
C           -0.38927066985000       -4.54204621138648        1.15138956201472
H            0.07618381500245       -3.52739344831772       -0.61326912952099
H            0.82552881951014       -2.87683640127309        0.85980723658904
C           -0.63006239333817       -5.56005346974631        1.73215774931485
H           -0.84002360868132       -6.45237396162283        2.24139750752816
Cl          -0.47879484114803        0.66914436970938       -2.03063232964330
Cl           0.79829162672598       -0.46830050153671        1.95183867978158
O           -0.51936113661030        1.56668853474388        0.71153455762920
O            1.63269529340835        0.69675014268860       -0.47864464663416
C            0.92209797312021        3.28897118172180        0.12740925309012
C            2.05481518090761        2.62626546722343        0.72787035501197
C            3.53625724540352        0.73803853346720        0.91478307186405
C           -1.39014388894996        3.35799998623315       -0.53906691120905
C           -1.14906073259400        4.57396031164393       -1.23303504422323
C            1.11847062860487        4.57082362509094       -0.41790050669364
C            0.12814093915179        5.18550127739898       -1.11983772859609
C            2.85947289217942        3.34847674963580        1.62735244482729
C            3.90450145323387        2.74873085061257        2.25948438036839
C            4.26603215391016        1.41522281654482        1.92857452283915
H            2.10296701736172        5.00545692967624       -0.34953154755540
H            0.30066079241362        6.12849215956469       -1.61352986643588
H            2.56857962085768        4.35826458282070        1.86925747967570
H            4.46961044310847        3.26946648348593        3.01596746346725
C            5.33527553569551        0.77622117348423        2.56309568344593
C            3.97777168224848       -0.52834820797247        0.47747533155624
N           -0.33032171963214        2.75978923548793        0.09029284537876
N            2.42287790053678        1.35549460098249        0.40826813783764
C           -2.68979182031314        2.81355862497171       -0.53120950204180
C           -2.16723912032170        5.15535001278741       -1.99405827765351
C           -3.40532389644031        4.55994902531896       -2.06676584471742
C           -3.65907955733890        3.41605380618391       -1.32395455994279
C           -3.14093654728615        1.69241372801486        0.31345561575943
H           -1.96038606973935        6.07316488963312       -2.52266846603215
H           -4.18652068065723        4.99386022385269       -2.67143787730476
H           -4.64807592519806        2.98321693138523       -1.33142391552804
C            5.69786585304406       -0.49975503630411        2.19804768761840
C            5.03610042268453       -1.12565097469278        1.15173929286850
C            3.44851597674068       -1.24664774136105       -0.69599434487776
H            5.86711629432444        1.30337227416296        3.34021683775433
H            6.51156921008836       -1.00187830243302        2.69799885738945
H            5.36456229618110       -2.09969379805936        0.82143121818722
C           -3.80968914360845        0.61777194052033       -0.26266084424364
C           -3.01921006757155        1.75241604489184        1.69920205961716
C           -4.19777282066074       -0.32546208195785        1.90659450987278
C           -3.53233742509264        0.74089141050298        2.48787945942479
C           -4.34147305497314       -0.38094190005388        0.53107946659047
H           -4.86977145879488       -1.20432490125391        0.07569217617755
H           -4.60553162619468       -1.11261944725404        2.52346892039190
H           -3.41927200679410        0.78955041562374        3.56116994475176
H           -2.52182369835942        2.59549405852750        2.15738791746463
C            3.39111163607981       -0.63612409657507       -1.94688928214178
C            3.09037517468774       -2.58565691546020       -0.58209612121482
C            2.55004183837730       -2.66215352624398       -2.91691971087221
C            2.63943098565402       -3.28754901616541       -1.68559788767289
C            2.93448364231862       -1.33747181739611       -3.04534017881010
H            3.70315860549494        0.39233688106356       -2.05629033234440
H            2.87583003953821       -0.84780771216606       -4.00561232845991
H            2.18649888257182       -3.20611513984569       -3.77613428392422
H            2.35742830235193       -4.32551588501036       -1.58018965229263
H            3.14769089142705       -3.07009965224924        0.38225258852627
H           -3.88928290138259        0.55906044772938       -1.33762902397667
