77
 energy: -129.246077970765 gnorm: 0.000340381072 xtb: 6.5.1 (b24c23e)
Si           0.22596231217148       -0.24520312511509       -0.29673862092578
O           -1.95626745113170       -1.11331961201767       -0.30074192420648
C           -2.35230880645149       -1.97506062857543        0.45398026002300
C           -3.34047082189024       -2.98246116388768        0.08745817619925
H           -1.95346048998296       -2.05223290972981        1.47763263008154
C           -3.78305506099460       -3.06590726253826       -1.23466511339906
C           -3.83660531004752       -3.87308167608188        1.03978091151806
C           -4.71079159980917       -4.02269272623087       -1.59385938458824
H           -3.37361086841664       -2.37453958956638       -1.95523134734240
C           -4.77009989653906       -4.82345254296670        0.67501576838847
H           -3.48794581130163       -3.80853698229220        2.06016430344915
C           -5.20739623408622       -4.89859290724021       -0.63950202612253
H           -5.04968582389003       -4.09135199024229       -2.61677620413037
H           -5.15845043408245       -5.51164568294111        1.41126960900543
H           -5.93514466418020       -5.64562222727871       -0.92068228447983
C            0.45923089719990        0.17889138787187        3.66098528052772
C            0.43527781386155       -0.49399427270414        2.55168944609783
H            1.37665728346862        0.57546842477685        4.06725434479278
H           -0.43698707112647        0.35819298317652        4.23236999779615
C            0.40807638060969       -1.11443323351325        1.41829414792734
H            0.54744988081197       -2.18691636849321        1.40179029065022
Cl          -0.43334026786822        0.63818800309272       -2.11865582324348
Cl           0.51664483058369       -2.13433796151274       -1.30958843730737
O           -0.39377101326402        1.16798710002044        0.61674351009013
O            1.83324403724936        0.41724160840879       -0.47435707250226
C            1.06785144673090        2.92098335653734        0.38127071827608
C            2.09063046327631        2.14828350756763        1.04535958637101
C            3.42313249087369        0.16538829299419        1.24163177035491
C           -1.17850274718333        3.13898306883294       -0.42023388787224
C           -0.83834017122510        4.40204387232580       -0.98092808010355
C            1.35843623023319        4.23530034208019       -0.01361087497356
C            0.44978584577145        4.94603863497331       -0.73545865129037
C            2.74106040482912        2.70335108662975        2.15741071719681
C            3.58569099462451        1.94500426112962        2.91138680220725
C            3.92032556286224        0.62960397481863        2.48890906074497
H            2.34544634963484        4.62158274198641        0.18602733882782
H            0.68929700874535        5.92010670012036       -1.13099248882527
H            2.46921686414222        3.70309017897341        2.45732412801339
H            4.00896515413416        2.32398424416104        3.82811784437100
C            4.75342947386751       -0.19304795305082        3.25167161726665
C            3.93306581414564       -1.03306941944330        0.69911093452504
N           -0.17927770892179        2.42198670031023        0.18360934053245
N            2.46139140647329        0.91504746698817        0.61243229833280
C           -2.51495631527946        2.68808259828889       -0.50960473194323
C           -1.77698934842197        5.11151858367975       -1.73609562198391
C           -3.04397365761034        4.60897982935762       -1.91535651451105
C           -3.40493334105344        3.43137025127314       -1.27896192192552
C           -3.10098921507912        1.56441658363446        0.23812300138193
H           -1.48743529652453        6.05736154222985       -2.16767548362704
H           -3.76759000220372        5.14341406984909       -2.51125001822213
H           -4.42639596665144        3.09022187541479       -1.34946516990495
C            5.11941254126020       -1.43609722502859        2.78385380537766
C            4.74266536874893       -1.82488390470092        1.50776204343497
C            3.78397929684930       -1.43234160260441       -0.70828590682718
H            5.10705793386659        0.16610110462480        4.20618031926788
H            5.74178157877189       -2.08278988467933        3.38312981381287
H            5.11723081639907       -2.75189110174618        1.10092433158995
C           -4.03248485582332        0.73458727063070       -0.38518628375303
C           -2.88087714339391        1.41338193045199        1.60561709521667
C           -4.48838882671822       -0.36851092111122        1.69199797179027
C           -3.55481187686251        0.44148009592129        2.31894033775954
C           -4.73586054057114       -0.20774188566884        0.33891153743104
H           -5.46517625221831       -0.83396151950777       -0.15473947692092
H           -5.02932309811109       -1.11427323758420        2.25696085635437
H           -3.36507862867170        0.32515060269079        3.37626873728826
H           -2.18873192885661        2.06615858073174        2.11579840188416
C            4.04466402753963       -0.51392862847960       -1.72361284020954
C            3.49768689750750       -2.74993025491599       -1.04943024007383
C            3.68801841139473       -2.21240909510589       -3.37738406586324
C            3.44748995746298       -3.13544158665458       -2.37573291376806
C            3.98966992576548       -0.90150693687930       -3.04726189167480
H            4.29792214311130        0.50643462887311       -1.47112656171956
H            4.17980808688523       -0.17656076621506       -3.82537507571963
H            3.63491942349451       -2.51044696652977       -4.41401463179281
H            3.20074216634441       -4.15604623160968       -2.62617047298098
H            3.27321674995990       -3.46564376748091       -0.27262914630970
H           -4.18764772521865        0.81962426648199       -1.44979789514581
