77
 energy: -129.333797605207 gnorm: 0.000221635207 xtb: 6.5.1 (b24c23e)
Si           0.10702448916964        0.13994888048907       -0.72363108734165
O           -0.07519579866212        1.20086796179372        0.48276944996260
C           -1.11497234289644        2.12046824514068        0.69649629596271
C           -0.89233539360330        3.43933853072314        0.00082902958662
H           -2.05385248814013        1.69541339990743        0.32084511062205
C            0.33384247211737        3.77181812234248       -0.55015740025067
C           -1.94545546174046        4.34171325451212       -0.09152627939547
C            0.51028800689241        4.99265396689006       -1.17772102250536
H            1.14221521612110        3.06174275562420       -0.49399713076378
C           -1.76765928443073        5.56298866779690       -0.71351955048840
H           -2.91165688552913        4.07837482246692        0.31589300376400
C           -0.53684906536331        5.89309416455467       -1.25643409986937
H            1.46902875265632        5.23785659458811       -1.61103000166475
H           -2.59298819658223        6.25694694698818       -0.78229133285144
H           -0.39957344842121        6.84579473364535       -1.74684489705274
C           -1.21902194741166        2.31035731685036        2.22223592034258
C           -1.64706600020108        1.07849097617162        2.84763037923583
H           -1.92757378970875        3.11083709222656        2.44711261237468
H           -0.22992100337498        2.58453275070287        2.59611504028162
C           -2.01092571517572        0.03637942375599        3.31007188110449
H           -2.32519021459760       -0.86672945892213        3.74136400144447
Cl           1.64657879374739        0.37526657517852       -2.13928241490435
Cl          -1.30167307242766        0.95946198147907       -2.11825239269248
O            1.25606137871875       -0.68253078993438        0.38647387951338
O           -0.89220721193584       -1.26219627341017       -0.75910419997010
C            1.47429293478087       -2.85035476845604       -0.34084887771096
C            0.17541280335922       -3.14221362015590        0.19736180033820
C           -2.06118494215999       -2.53455691413710        0.83695331619967
C            3.35354642043969       -1.36564704883076       -0.41938806182967
C            4.08484651852694       -2.32742247946286       -1.16396051792156
C            2.22715403114445       -3.85022054284802       -0.98731447411764
C            3.47799775343803       -3.58098996293933       -1.44575029657995
C            0.06063936049355       -4.33470726716614        0.93962026523947
C           -1.00423719995481       -4.54489454683937        1.75554093539671
C           -2.07051063434951       -3.60393890831310        1.77555927940779
H            1.75355766978158       -4.79902480295328       -1.18270533122654
H            4.02892199494332       -4.30984125623019       -2.01875255258396
H            0.89707029812726       -5.01474253122941        0.93464388796661
H           -1.05277021684703       -5.40546963607254        2.40296164155665
C           -3.13494906133478       -3.75368649314623        2.66685477024667
C           -3.23167468619698       -1.75927591583986        0.69649243505339
N            2.04844982640408       -1.64294494783349       -0.11626896026997
N           -0.90380728310191       -2.30909788150655        0.12329048909992
C            3.98448279893140       -0.16730963229889       -0.02220417179089
C            5.38201182633305       -2.03039861282276       -1.59490520120216
C            5.95527928108629       -0.81934800845221       -1.28665097366799
C            5.26541977650424        0.08580426676065       -0.48976536453700
H            5.91864920459053       -2.76766997545579       -2.17215516207370
H            6.94828532707640       -0.58069852091668       -1.63486379292015
H            5.74351973600937        1.00819502092051       -0.19584946846305
C           -4.20258231580875       -2.88370153707401        2.62797286216740
C           -4.25554499036774       -1.92951591673093        1.62585442336682
H           -3.10481059871317       -4.56507661355714        3.37810123803722
H           -5.01427950969101       -2.97666242122209        3.33301656023240
H           -5.13577466701619       -1.31297254619693        1.52545718351128
C            3.40487613616543        0.80175605719480        0.92414962760808
C            3.37970620156034        2.15465631728813        0.60454745416921
C            2.97046591726675        0.39544210722356        2.18300628930634
C            2.91230746956764        3.08181724843541        1.51849815619627
H            3.70408920720917        2.47050080500804       -0.37654257737824
C            2.50011325448295        1.32237763403656        3.09186287367941
H            3.00686124097273       -0.65116376015523        2.44972115786716
C            2.47055567785666        2.66773999900962        2.76273930559442
H            2.88566664118952        4.12977717635772        1.25679122931400
H            2.15437290627708        0.99486573694358        4.06170259037495
H            2.10832520209848        3.39371097154600        3.47721367530227
C           -3.55891997430994       -0.88217043620881       -0.43965571946764
C           -4.08748267489297        0.38652094114635       -0.21958866418403
C           -3.52487629646712       -1.38625455444639       -1.73659244760941
C           -4.54697792536710        1.14569219955512       -1.27957177126685
H           -4.12344783959990        0.77535963320761        0.78949188958955
C           -4.00233964718990       -0.63116754432052       -2.79011761009005
H           -3.13360065775459       -2.37798354503459       -1.91399074882388
C           -4.51219976138800        0.63580450178841       -2.56554896524063
H           -4.93412159789276        2.13842416553834       -1.10182425886815
H           -3.96961968983523       -1.03081582345167       -3.79253419195295
H           -4.87265703572353        1.22859254867090       -3.39219196957586
