77
 energy: -129.337828748883 gnorm: 0.000531654953 xtb: 6.5.1 (b24c23e)
Si           0.04640259597514       -0.06884092454893       -1.05729813200720
O           -1.44332314736701        0.54656019498278       -0.77457093520434
C           -1.98966735882739        1.84658653706839       -0.88076362620655
C           -1.97074219322818        2.42372452567962        0.51779190970881
H           -1.34373199574798        2.45061465367036       -1.53048038451171
C           -3.08669093906671        2.47354652635865        1.34068423035940
C           -0.74062050974379        2.83224815298067        1.02477757692194
C           -2.97447384590967        2.92695258513776        2.64497659053465
H           -4.05294710100490        2.16093956869038        0.97613996669147
C           -0.62778651419765        3.26995411131358        2.33085838948333
H            0.12777609565049        2.79390772360861        0.38387007675908
C           -1.74671182331085        3.31886073606113        3.14637304738458
H           -3.85359531087312        2.96991982257773        3.27183806843900
H            0.33406231747496        3.58023386594796        2.71331574036737
H           -1.66173443022916        3.66561644321443        4.16609813257380
C           -3.38187503709718        1.75104060306318       -1.51587100117546
C           -3.26496678542677        1.38979525530088       -2.91349502857812
H           -3.87765799250631        2.72185356493220       -1.43174002971220
H           -3.97143755751949        0.99222869812160       -0.99349923601631
C           -3.12522278284902        1.07804481019141       -4.05984476153746
H           -3.01196354732721        0.81283863155221       -5.06792602307763
Cl           0.67178529591968       -1.55567889798354       -2.33450015859191
Cl           0.68166461278746        1.50747258816290       -2.35566239668988
O            1.21183876927238        0.47388854568027        0.09304049361351
O           -0.41378102685338       -1.45295939581952        0.01233972081656
C            1.13723862832382       -0.78766310479764        2.08565592595887
C           -0.29668870391284       -0.72274346235940        2.18500889630171
C           -2.43026943233053       -1.15448903813045        1.19114821088948
C            3.20907696445178       -0.43623558017206        0.92331722536152
C            3.85483135337248       -1.33939235833089        1.81057050193483
C            1.82741219298531       -1.47893366160248        3.09802110054221
C            3.13555187386800       -1.81715060401218        2.94033930353531
C           -0.91880134256594       -0.32986826904709        3.38286843655889
C           -2.27340725413202       -0.22393351312900        3.44742221986855
C           -3.07008283651484       -0.61476785107440        2.33684482295302
H            1.25798757318256       -1.83393714961852        3.94214367452711
H            3.64154339318016       -2.44353494691024        3.65701826058729
H           -0.29312365329766       -0.02821801525186        4.20758561998358
H           -2.75992959203616        0.16273394144431        4.32836188516169
C           -4.46292407117343       -0.48605777925837        2.35059953155269
C           -3.20904308454041       -1.67169897903031        0.13442304997407
N            1.84575841831098       -0.27657729786567        1.03976471864302
N           -1.06416824814924       -1.13468458196205        1.14801705398097
C            3.98522361236290        0.25166395823943       -0.03246470993090
C            5.18818085837556       -1.69482769386753        1.59439942501357
C            5.89129298488872       -1.14765986723227        0.54338109579111
C            5.30253818264406       -0.15648506997584       -0.22514451114070
C            3.56810985804512        1.48057385427832       -0.72503302389249
H            5.65400337448805       -2.39712859294223        2.26840303217693
H            6.91211701667905       -1.44234163128194        0.35584057388648
H            5.88754830813930        0.35549906452622       -0.97385137404778
C           -5.20936811979836       -0.88228900697278        1.26396332467484
C           -4.58360310331405       -1.48864311387844        0.18115954634007
C           -2.65585985010244       -2.46892951110595       -0.97403554081175
H           -4.93638109672543       -0.06494458444003        3.22427473466184
H           -6.28147299613484       -0.75601609883926        1.26308189361417
H           -5.17614368263778       -1.85928363134890       -0.64237728597564
C            3.83622357083868        1.66589169575101       -2.07730565782159
C            3.03600502728515        2.53807277694546        0.00986436222700
C            3.03391409874498        3.92143207892382       -1.94803731515244
C            2.76600647521756        3.74687670910262       -0.60089644866119
C            3.56809527739251        2.87849172746996       -2.68353648486963
H            3.76434925995357        3.00497774908248       -3.73733444293597
H            2.81714726326294        4.86580582628214       -2.42414599649680
H            2.34566776559489        4.55799481267219       -0.02304110867964
H            2.84619686759488        2.41132217911353        1.06740468283329
C           -2.90188265495823       -2.11693983464320       -2.29558410368387
C           -1.94698679589243       -3.63613514320809       -0.70114548256209
C           -1.70571052270668       -4.05543040521685       -3.04906713983337
C           -1.47563303246907       -4.42234123977192       -1.73369428102905
C           -2.41799360261751       -2.90234995277342       -3.32578653031097
H           -3.43517120546728       -1.20526333489140       -2.51822898479420
H           -2.59366468003776       -2.60638300565304       -4.34907311208069
H           -1.32280367463345       -4.66334342560843       -3.85478377874872
H           -0.92027315279101       -5.32179362754218       -1.51170663563131
H           -1.76694430716103       -3.92365681893593        0.32576408011258
H            4.22107470889519        0.84249548293525       -2.66063847092269
