57
 energy: -99.547349029055 gnorm: 0.000598273547 xtb: 6.5.1 (b24c23e)
Si           0.07287767353880       -1.82281585557611       -0.43302940565204
O            1.60028104063404       -1.25889260538547       -0.42238831055141
C            2.71940911100310       -1.62476069173876        0.35325585543711
C            2.56983619638938       -1.11053936292965        1.76215104320820
H            2.80464927471255       -2.71728667926741        0.36102479669011
C            2.15074788622609        0.19694479295670        1.97182697289800
C            2.82445536451192       -1.92662926662781        2.85436756356834
C            1.98025828878011        0.68085238040360        3.25560464186927
H            1.94688590397178        0.83465234817747        1.12301849994433
C            2.66032420978684       -1.43982515026722        4.13915026842638
H            3.13327372212795       -2.94882856512636        2.69580204002463
C            2.23638322891170       -0.13747468776766        4.34263127660573
H            1.64687218838208        1.69799040710361        3.40624664014234
H            2.85412715965375       -2.08335893571821        4.98443538719786
H            2.10006821013338        0.23795812455029        5.34630655359156
C            3.96506929125301       -1.00930731634951       -0.31250353766116
C            4.04522395152556       -1.39347315881720       -1.70561470330869
H            4.85422602517787       -1.35142956794730        0.22257754680212
H            3.90740498505716        0.08090204150945       -0.23964372427797
C            4.05396948444394       -1.70561858779893       -2.86084952364431
H            4.08438963861696       -1.99079302390429       -3.87008161852300
Cl          -0.72631836444592       -3.04971054950527       -1.85732595756968
Cl           0.30279702721362       -3.32271431192474        1.06078121745151
O           -0.94987202449969       -0.99267175354964        0.68649328401437
O           -0.29156450112406       -0.47786162982773       -1.66785011005668
C           -1.94305278565009        0.97687482270691       -0.15973984828983
C           -0.61968710216270        1.50207131417252       -0.51935484401757
C            1.34742365480825        1.13822818850656       -1.76262132526891
C           -3.24532857003307       -0.84696904583747        0.59731046900008
C           -4.43511759295705       -0.15027923454500        0.39014100654831
C           -3.07473467408295        1.71929899614386       -0.36691558529517
C           -4.36696815643309        1.19076008241405       -0.09301154744623
C           -0.17731824910750        2.73924285799261       -0.12390958448299
C            1.09914132418930        3.21454063082801       -0.52370955598149
C            1.87717805853685        2.37410739114721       -1.37262333628438
H           -2.98332358583928        2.71110490552350       -0.77976255457370
C           -5.54351634187599        1.90977053825336       -0.29626319622271
H           -0.79532716749123        3.34017086875117        0.52323304840356
C            1.61950507604543        4.44547220403311       -0.11540405560430
C            3.15622617445116        2.80211249477124       -1.77777603223322
H            1.88311559305644        0.43833076247994       -2.38206951784988
N           -2.04893819755231       -0.27581664279032        0.35150687104764
N            0.14935584729515        0.73616645812255       -1.33116874234108
H           -3.20921006929553       -1.85550979266886        0.97238673849708
C           -5.70013817422345       -0.71966867071474        0.64546141630903
C           -6.77110737100055        1.32837552254907       -0.03319335650728
C           -6.84258374050060        0.01656430962676        0.43410368184362
H           -5.75237242697393       -1.73473265760636        1.00607738673354
H           -5.48575242292226        2.92373268264083       -0.66285727065023
H           -7.67791409114607        1.89076228939784       -0.19322679424781
H           -7.80789931657705       -0.42487272796877        0.63126290662308
C            2.87675054683289        4.84212683641064       -0.52924267795629
C            3.64087063142602        4.01978036387019       -1.35619931308227
H            3.74368653027442        2.15857353984676       -2.41441146567031
H            1.02823318315857        5.07960230536816        0.52793279730716
H            3.27183061904404        5.79399338216659       -0.20899922177543
H            4.62276382473400        4.34285262972624       -1.66742519314701
