57
 energy: -99.538718047044 gnorm: 0.000653115333 xtb: 6.5.1 (b24c23e)
Si           0.59099525312593       -0.87696607876236        0.52037033090917
O            2.06407848468075       -0.97827426128880       -0.19853254526143
C            3.29131048901674       -1.48649822271590        0.24920055974699
C            4.39622573552053       -0.97222370956988       -0.64100259380724
H            3.45701401361137       -1.14557721050037        1.28168041775520
C            4.15299750774662       -0.69596307452051       -1.97906196027434
C            5.67787962512074       -0.80292248908976       -0.13252866112757
C            5.17719346686357       -0.25248312864047       -2.79738208616954
H            3.15276050214323       -0.82040592574728       -2.36455696222378
C            6.70207813614755       -0.36511183848186       -0.95278344797677
H            5.86948351259215       -1.01304926350172        0.91036284808923
C            6.45380296415501       -0.08870076874687       -2.28729846493741
H            4.97843505513663       -0.03642670642368       -3.83721126454170
H            7.69579555153748       -0.23532986914820       -0.54909166846730
H            7.25372782108541        0.25558745621616       -2.92651839036976
C            3.29675685552768       -3.03193249172539        0.23763873285060
C            2.57600828144760       -3.56575260779705        1.37157573291732
H            4.33180310099141       -3.38282512901868        0.26591472426525
H            2.83246320020371       -3.37221529738996       -0.69139680603590
C            1.98228961279408       -3.96006898619512        2.33258265464185
H            1.45460635437475       -4.32144875360606        3.16335691582528
Cl           1.20967591894552       -0.35837470709109        2.41020359026025
Cl          -0.19709023562465       -2.65698550361538       -0.14690330932744
O            0.08933896834776        0.27887494834988       -0.64952055587593
O           -1.15835176452523       -0.50131809062153        1.36798390872267
C           -1.68284400835816        1.70249856362598       -0.07133076391160
C           -2.58329576280428        0.54459395256933       -0.12170689706627
C           -3.02371196898993       -1.63201858405718        0.65342372457358
C            0.54681858626564        2.49887470034732       -0.16721581594271
C            0.14431450225687        3.80299697133825        0.11531846947448
C           -2.14211222184825        2.96443864367135        0.19094532959935
C           -1.24789076793341        4.06912888754034        0.28724764781829
C           -3.74521874035530        0.54923385208722       -0.85192561789829
C           -4.60307099390469       -0.57833375971083       -0.86099807344998
C           -4.21247873890438       -1.70546318694704       -0.08323250015556
H           -3.19520921275950        3.11647674615233        0.36373811803197
C           -1.67140749222024        5.36790167766559        0.55832805394001
H           -3.99250603471945        1.41681435654067       -1.44218748647137
C           -5.79384773078598       -0.62884581619163       -1.59333196557717
C           -5.03223942105369       -2.84957866099635       -0.07364906966908
H           -2.66986771831341       -2.44165534300541        1.26871381109776
N           -0.35802589955418        1.50388571319176       -0.28395431098688
N           -2.25665263888722       -0.54039504277128        0.62795318295176
H            1.57361577080879        2.21267299790440       -0.31675442773398
C            1.06070817699483        4.86913241089866        0.23330647674381
C           -0.75090171200407        6.39711913764630        0.66234899554176
C            0.60944098147546        6.14090126763248        0.50186849374711
H            2.11327168174810        4.66811003714666        0.10966204476964
H           -2.72554505313353        5.56278861635726        0.68785924833530
H           -1.08734421548573        7.40067262572873        0.87195376701091
H            1.31677812339937        6.95197429593390        0.59009642029718
C           -6.58017934024092       -1.76262658170047       -1.56392714728089
C           -6.19651733053109       -2.86972100398136       -0.80677904789440
H           -4.72943877267591       -3.70404692836573        0.51064050044785
H           -6.08698160771936        0.22814545581564       -2.18097396053307
H           -7.49751508911821       -1.79543051035079       -2.13180407256712
H           -6.82145876161363       -3.74993078208342       -0.79824782683118
