57
 energy: -99.547668578064 gnorm: 0.000619312686 xtb: 6.5.1 (b24c23e)
Si          -0.30823394555775        1.82622221627560        1.01692974392964
O            0.89355057937852        2.41118415986324        0.11538138968594
C            1.21657978890251        2.26702092711177       -1.25532564372377
C            2.18313924553106        1.12322493243119       -1.42231667575124
H            0.30214336938285        2.06392524664350       -1.81748428042127
C            3.37139370074607        1.10687533351349       -0.70147845819484
C            1.89539069553563        0.06761984393851       -2.27585607789339
C            4.27149729375817        0.06912290645955       -0.85986357214210
H            3.58204186072068        1.91050523789680       -0.01194335844321
C            2.79228165351735       -0.97610390457325       -2.42605989843289
H            0.96442014128255        0.06640895526619       -2.82440422950869
C            3.98697831445123       -0.97152152120091       -1.72782856316360
H            5.19899322961762        0.07158032014507       -0.30697925833812
H            2.55964331543262       -1.79366416994933       -3.09271789713071
H            4.69005244993397       -1.78146494466370       -1.85153978398961
C            1.81946759630079        3.59685775127511       -1.73720203972383
C            0.80552679395679        4.62993133953736       -1.74445009747705
H            2.22369957051232        3.46176320903489       -2.74409548387868
H            2.62703867587011        3.88811377247504       -1.06253050858711
C           -0.07150866875692        5.44341374594321       -1.73110429499536
H           -0.82063299243487        6.17709041144509       -1.71641269820133
Cl           0.40327318452107        2.80286117629805        2.72039397197945
Cl          -2.22019356527413        2.55974851453634        1.10055552272889
O           -0.87921290692901        0.76614517087265       -0.56824575458425
O           -0.17514966076377        0.29100771389000        1.78525206306253
C           -1.51107262088149       -1.36599495508791        0.04515526206665
C           -0.10626779980820       -1.60745520724585        0.39471484303866
C            1.81245643228848       -0.87192357967931        1.57307902136508
C           -3.08929397323650        0.17668845051342       -0.77249394633479
C           -4.12482960543885       -0.76150831071188       -0.67726397164097
C           -2.47278635818112       -2.34011558146103        0.14398808785639
C           -3.81817979917521       -2.07157553358464       -0.21079724360520
C            0.58456309928582       -2.68345046896361       -0.09271404670547
C            1.94990346268666       -2.89990210649629        0.24784522525750
C            2.56724388087618       -1.94983672927888        1.11481540516868
H           -2.19987726616625       -3.31263075724144        0.52063622413096
C           -4.83980761949977       -3.02250013828370       -0.11618849995274
H            0.08856951558452       -3.36588541839208       -0.76382810825453
C            2.69031843833476       -3.97893059758341       -0.22801653950478
C            3.91714216272746       -2.13554734919191        1.47794053623984
H            2.20070254173109       -0.11082344671395        2.22762452264061
N           -1.83886253430993       -0.13385717402743       -0.42327009985947
N            0.51456589417687       -0.73783424016199        1.22923486214046
H           -3.24718726395082        1.18443458805486       -1.11761305254399
C           -5.45119799595791       -0.45143500496528       -1.03145959200048
C           -6.13201533770955       -2.69178986984632       -0.47022138765246
C           -6.43441725449082       -1.40812288012946       -0.92535524414029
H           -5.67971494887918        0.54395494869981       -1.37830015241309
H           -4.60402308948523       -4.01423615224790        0.23939245159519
H           -6.91608181228042       -3.42946127725156       -0.39280416215045
H           -7.45110660508876       -1.16564445016814       -1.19516688819380
C            4.01563309570855       -4.13574199479137        0.14121488840204
C            4.62026838524953       -3.21477270661907        0.99402523293573
H            4.38168065442885       -1.42164562273477        2.13955239902971
H            2.21894366830216       -4.69352038249858       -0.88623444067633
H            4.58195934299623       -4.97549872698435       -0.23134318979175
H            5.65350759052757       -3.35112266939128        1.27683148674936
