57
 energy: -99.537920266219 gnorm: 0.000722705832 xtb: 6.5.1 (b24c23e)
Si           0.70923370699452       -1.44768354971812        0.13416909618788
O            2.01839548030319       -0.72744799444424        0.72178863665659
C            3.03031004728095        0.04276902024210        0.12600151954243
C            4.14563680564675       -0.82577682546450       -0.40379074647485
H            2.60291266795896        0.61362064033576       -0.70556044316934
C            4.37286071423804       -2.09168865203091        0.11540718982456
C            4.97943299107008       -0.33765806015546       -1.40224017147304
C            5.41638951872514       -2.86350422466936       -0.36503076004592
H            3.72290850414901       -2.47401917431359        0.88681070195955
C            6.02757956807935       -1.10624997547667       -1.87409088480810
H            4.80382911761522        0.64685127198160       -1.81391719258725
C            6.24727378513854       -2.37201278390552       -1.35662846234745
H            5.57918274821233       -3.85116952800186        0.03933439977831
H            6.67100847607096       -0.71840832936026       -2.65024994348828
H            7.06315956058246       -2.97360076558378       -1.72906723444710
C            3.58510649718948        0.99683643064751        1.20196127265707
C            2.55660872894532        1.87506830427337        1.71517267672840
H            4.40134940928785        1.58473440315847        0.77453593774470
H            3.97718805823940        0.38953428377585        2.02187628015637
C            1.67557334265418        2.57905508857016        2.11565575031552
H            0.91936702390419        3.19734796885236        2.49796342844505
Cl           0.62081069009035       -2.35126346898205       -1.67821884648759
Cl           0.89761177354571       -3.14012518324535        1.34801463314980
O           -0.68687611367583       -0.92574939941765        0.95322470938474
O            0.24730124801433        0.21500592088942       -1.09630608068905
C           -2.35678967400897        0.23958747837948       -0.20118723795744
C           -1.50653109725431        1.43431485065340       -0.18022675792690
C            0.51872888689126        2.45907304883441       -0.75873079685463
C           -2.60059654395221       -2.06758725409639        0.29735407482966
C           -3.88275681434307       -2.09841452433762       -0.24537638497200
C           -3.61553715464550        0.27266867159844       -0.73828022875564
C           -4.43440879552977       -0.89089040161891       -0.77243942694050
C           -2.01418583616363        2.64107294095584        0.24525044402762
C           -1.24309009963161        3.82489446153631        0.19338334703394
C            0.06764632070268        3.71969220436793       -0.34801581537561
H           -3.98016635455576        1.19018273634590       -1.17118605271101
C           -5.72295353957158       -0.89725862376588       -1.30285698623405
H           -3.01926901249328        2.67456658204829        0.63390683254770
C           -1.70677748377757        5.07015950691854        0.63428620176496
C            0.86814389068536        4.87205910320487       -0.44081620932769
H            1.49439976830744        2.32894234659879       -1.19553606732257
N           -1.89599346099673       -0.91597333252253        0.33749649851042
N           -0.23218086405595        1.35773484959773       -0.65283619581495
H           -2.11286383451755       -2.92986138361108        0.71856734754875
C           -4.65910396503966       -3.27656357695938       -0.28712561818504
C           -6.46582817972802       -2.06434294758492       -1.32156296101738
C           -5.92760615176009       -3.24801380445602       -0.81672365682984
H           -4.23978160056093       -4.19011336287204        0.10368416315478
H           -6.13500466441373        0.01931401281463       -1.69816347616949
H           -7.46421767104144       -2.06032520533697       -1.73086686507943
H           -6.51710710242015       -4.15220962419399       -0.84301672271433
C           -0.89732282196421        6.18376870045734        0.54058928141634
C            0.38545783360836        6.08310988029749        0.00197441965387
H            1.86245676669922        4.78870674523882       -0.85080787541586
H           -2.70107912355742        5.14505267508411        1.04829836659321
H           -1.25759550133066        7.14075680601987        0.88628277083705
H            1.00515153015765        6.96450402243896       -0.06437187882858
