57
 energy: -99.547967767850 gnorm: 0.000406759977 xtb: 6.5.1 (b24c23e)
Si           0.80114601110854       -1.25833883759608       -0.46835773714222
O            1.80231071394697       -0.02846312892124       -0.09940161161685
C            2.95360858657746       -0.00316158411807        0.70977038791045
C            4.13435901730030       -0.64024545161386        0.02315443940274
H            2.74518753462609       -0.53762744887704        1.64389865868925
C            4.25021017070807       -0.60646844949839       -1.35860036977362
C            5.12892254739897       -1.25060633612986        0.77531779408465
C            5.34165590681678       -1.18324836772627       -1.98310866123779
H            3.46993781604637       -0.14604476595121       -1.94593075590525
C            6.22386833669040       -1.81945644521635        0.15116599377680
H            5.03514251937735       -1.29043570763664        1.85083727851738
C            6.33224467242233       -1.78743049948422       -1.22914650128170
H            5.41586756781990       -1.16211006575021       -3.06033247429504
H            6.99087034911201       -2.29678694400748        0.74307085019853
H            7.18431168671527       -2.23852485045782       -1.71589108988617
C            3.25865202629042        1.47420628455422        1.02558494415775
C            2.16435314817159        2.08477802113052        1.74815290997363
H            4.17217373530674        1.52502570533762        1.62268315442934
H            3.42004034200755        2.01044032385975        0.08663482785496
C            1.23248553784819        2.55527651757430        2.33302719037429
H            0.43120561992611        2.98431991426283        2.85599690373571
Cl           0.92401324006781       -2.39250605662557       -2.16600268532394
Cl           1.63415968480332       -2.72731546746583        0.83307191851972
O           -0.59772684373957       -1.28784514265331        0.53925245911058
O           -0.09760459415961       -0.05542435123446       -1.57143121724570
C           -2.40923234245914        0.02846250004523       -0.21634944856321
C           -1.54652364804675        1.21342960990444       -0.28752605259326
C            0.39253783673256        2.16590841202663       -1.21751125547795
C           -2.60883952377439       -2.30966333259266        0.08748982597714
C           -3.96943864160386       -2.28668014042912       -0.21543804533785
C           -3.74477700195780        0.11769547928221       -0.50851596343810
C           -4.58240754085883       -1.03190937410377       -0.50954779649707
C           -1.88956220460152        2.41114030720037        0.28945929911161
C           -1.05975167605583        3.55156463640185        0.14487852300885
C            0.11893111290328        3.41208632228072       -0.64267186884826
H           -4.15983094121569        1.07601858319861       -0.77607753126195
C           -5.94454504355103       -0.98210588679442       -0.80049053729454
H           -2.79009194526649        2.47360027646653        0.87894149938616
C           -1.34569311983533        4.78462449864544        0.73799993782928
C            0.96743146653590        4.52196973548800       -0.80895226525334
H            1.26257206005871        1.97803122150949       -1.82255965659997
N           -1.87700281270426       -1.17638499760481        0.11014964589286
N           -0.41497925893355        1.12131196425085       -1.02638582844088
H           -2.07486213627410       -3.21066168887329        0.33716505029107
C           -4.76215880992640       -3.45332945658514       -0.23409333326950
C           -6.69984695845929       -2.14136573472799       -0.80663886658744
C           -6.10394893629531       -3.37031137119128       -0.52581010806915
H           -4.29920098888869       -4.40276176778391       -0.01619935722138
H           -6.40227586901756       -0.02952889730829       -1.02173178328619
H           -7.75393197245515       -2.09541927160557       -1.03267519866843
H           -6.70541335164718       -4.26681306590407       -0.53801135951663
C           -0.49148468486665        5.85593451469329        0.56424708354424
C            0.66124326678170        5.72166507937426       -0.20790371546692
H            1.85913595302135        4.41585399081028       -1.40671833605827
H           -2.23968800849602        4.88731163932620        1.33507251594585
H           -0.71637567957567        6.80367756597700        1.02916193913833
H            1.31866506754178        6.56853478286498       -0.33374761940355
