57
 energy: -99.544959348378 gnorm: 0.000945898976 xtb: 6.5.1 (b24c23e)
Si           1.13899306931628        0.05532575528665        0.71499693471792
O            1.60160560156991       -1.02868532915909       -0.38982527910728
C            2.71522398978936       -1.89264032690620       -0.36372198024784
C            4.00112392794423       -1.11645281952288       -0.48154835042155
H            2.71010811457247       -2.44963645735567        0.58197636400905
C            4.05536776363783        0.00523842399345       -1.29763835355982
C            5.13247027932298       -1.50627240206037        0.22045498481512
C            5.22569732313310        0.73385741751079       -1.40489958431858
H            3.16591348227021        0.31209576124698       -1.82738303742489
C            6.30537817666327       -0.78121104481217        0.10549890008192
H            5.08807531469890       -2.37027335741148        0.86729239007179
C            6.35368146108922        0.33986624371405       -0.70559206179227
H            5.25676748953583        1.61201278142293       -2.03306776501243
H            7.18121077035903       -1.08647773039293        0.65881258775191
H            7.26747027794835        0.90988820106710       -0.78685567431702
C            2.56326385867323       -2.86845847542247       -1.54392596309137
C            1.33382675443871       -3.62322554486527       -1.43639956747192
H            3.42077059694491       -3.54574801225205       -1.55701562638305
H            2.54957680550565       -2.29181060048497       -2.47214652421395
C            0.29683633545030       -4.21001746641063       -1.32697049570694
H           -0.60202341992443       -4.74456580125494       -1.24696946903006
Cl           2.06018930114303        1.86960702139253        1.10371773085217
Cl           1.98657303226882       -0.86913521332892        2.45782376058368
O            0.26680412822791        0.83762164195488       -0.73230098364282
O           -0.41817014280793       -0.21574606486836        1.41347977112980
C           -1.89163786568831        1.47160352485256       -0.17821939859097
C           -2.21040696616539        0.04223616985739       -0.08534545793295
C           -1.60905868546980       -2.08199263801298        0.76255268851459
C           -0.24000976305142        3.08448684714967       -0.64452674997173
C           -1.14435367519013        4.13482190199536       -0.44760799514140
C           -2.83438476182103        2.44997753444975        0.00890841832837
C           -2.49342572027721        3.82202795607905       -0.11294321438334
C           -3.27555768063812       -0.50306921295760       -0.75144008642284
C           -3.55154520334183       -1.89742226630412       -0.68173922963142
C           -2.67277560447885       -2.69998124639144        0.10524563594635
H           -3.84053432171673        2.16922836755642        0.27515266110635
C           -3.41018705751508        4.85823803789498        0.08278857998573
H           -3.89646838406546        0.13292019910283       -1.36141860869661
C           -4.61786410167566       -2.49710949444895       -1.34959135669934
C           -2.91344808442080       -4.08698832730945        0.19472451908233
H           -0.89936115202346       -2.61591007041964        1.37065441858680
N           -0.61969220899737        1.80945557068356       -0.51101991722804
N           -1.41955663071603       -0.75215106131222        0.67527714931094
H            0.79398651106987        3.24525040527659       -0.89622800963825
C           -0.76426923777068        5.48478106511522       -0.57146397959823
C           -3.01063940670292        6.17432279769900       -0.04557215605751
C           -1.69014695388931        6.48302202523704       -0.37045360573788
H            0.25939908917594        5.71797175480706       -0.81797665385844
H           -4.43125355866830        4.61712194949349        0.33745667858231
H           -3.72356362600210        6.96973503449528        0.10873515504181
H           -1.39338980602679        7.51674617525914       -0.46361347378858
C           -4.82678235300399       -3.86183670921809       -1.25044338719848
C           -3.97489907558617       -4.64892837803345       -0.47767812106983
H           -2.25727529750719       -4.69142434248661        0.80197030240636
H           -5.27857821582758       -1.88534620631671       -1.94541776452170
H           -5.65349731973832       -4.31883330423772       -1.77202662537582
H           -4.15244917406380       -5.71187066065733       -0.40666612362162
