57
 energy: -99.546988674101 gnorm: 0.000387346461 xtb: 6.5.1 (b24c23e)
Si          -0.17917316105892       -1.79367990288937       -0.49703626277617
O            1.34861072494365       -1.36454209076506       -0.85492126159879
C            2.58780840887119       -1.94231629046840       -0.51304534549310
C            3.07531556612748       -1.38682627464191        0.80039849934748
H            2.46871526586486       -3.02861304786205       -0.43817168166320
C            3.00946747522853       -0.01906243602595        1.03315225536222
C            3.58845653260241       -2.22016087883924        1.78330122790686
C            3.45142796470629        0.50994955262954        2.23157603695477
H            2.60186372982784        0.63162628766008        0.27272801320919
C            4.03645699306540       -1.68943351075429        2.98033136977778
H            3.62326606072441       -3.28575796456152        1.61370677196363
C            3.96984022949564       -0.32512794138156        3.20674268054116
H            3.39201565801886        1.57561792867666        2.40190027697570
H            4.43287592914089       -2.34446384634743        3.74192908671556
H            4.31673001214276        0.08670235729196        4.14319209374843
C            3.58509104461365       -1.60725679713753       -1.63942944563930
C            3.04643660780025       -1.99575419842281       -2.92544477047069
H            3.77934696906660       -0.53064997048381       -1.63584683576260
H            4.52262058224777       -2.13484877957621       -1.44887956904046
C            2.53871965386537       -2.29844421931898       -3.96579249743615
H            2.11553599311268       -2.58562999949204       -4.88154833362471
Cl          -1.40087218879379       -2.91385007769259       -1.68756528454845
Cl           0.27397537366717       -3.33489005212434        0.89953871545118
O           -0.84251276387385       -0.91482655803780        0.83317042776149
O           -0.70489022401114       -0.38425884772248       -1.60370085087243
C           -1.80434819813499        1.16425286673820        0.25891423610557
C           -0.55106017303708        1.57467846661384       -0.38711378926436
C            1.00659334072757        1.08118829932791       -2.08335707576243
C           -3.08215657837339       -0.56576800882329        1.24322408462225
C           -4.21793367625265        0.24017122858906        1.30715869442534
C           -2.87708635206318        2.01252124848109        0.31689088803165
C           -4.12624037860965        1.58931247435262        0.85073526776736
C            0.09886202625185        2.74441728939611       -0.08634585548658
C            1.28490357939406        3.11083644395556       -0.77461448331519
C            1.73835178426695        2.24384953272626       -1.81169299231944
H           -2.78167375157388        3.00744821741721       -0.08746208635285
C           -5.24640254333081        2.41599956418994        0.91611636625064
H           -0.28101246446322        3.37363409168859        0.70211681424199
C            2.01836950217372        4.26165411213368       -0.47407122051075
C            2.91534652430217        2.57019302846603       -2.51279430334827
H            1.29713534134610        0.36234586529040       -2.83156886359980
N           -1.91615969320148       -0.09232434661391        0.75868391788613
N           -0.08102051684613        0.77223929657245       -1.37318363232704
H           -3.06380395358990       -1.58809859207947        1.58034067976581
C           -5.45082199080798       -0.22715576948785        1.80896980217853
C           -6.44212300937858        1.93303275771476        1.41716290991856
C           -6.53818510979735        0.61361243342652        1.85818175817678
H           -5.52266732389992       -1.24824173356319        2.14868486270330
H           -5.17081807124415        3.43555664345051        0.56874690513047
H           -7.30568437919417        2.57828787718147        1.46354754480550
H           -7.47925947471179        0.24957818126168        2.24218604039897
C            3.17200768788621        4.55587021699393       -1.17523450407892
C            3.61624241307107        3.71061221405598       -2.19101788146876
H            3.25567247927683        1.91073925935317       -3.29633406922955
H            1.67354338338193        4.91434512707673        0.31377518384024
H            3.73432076045518        5.44519221086738       -0.93521857612423
H            4.51994537857315        3.95425006149006       -2.72889193986754
