57
 energy: -99.539277542886 gnorm: 0.000493793942 xtb: 6.5.1 (b24c23e)
Si           0.63692549950841       -0.74787501106544        1.05948021216233
O            2.13882026764808       -1.10396711487495        0.49870414867291
C            3.23067740346325       -0.31812940373748        0.10424771851534
C            4.18470287149090       -1.16772739550712       -0.70284599932435
H            2.86383907820654        0.50859478907046       -0.52090770365893
C            4.30084832477972       -2.52811715275112       -0.45695322928351
C            4.98991023418826       -0.57921859152316       -1.66966464752988
C            5.20793846282947       -3.29070774340064       -1.17151539383224
H            3.66548956896634       -2.98165658602900        0.28761823567885
C            5.89988918142249       -1.34146631907283       -2.37967995925604
H            4.90185386810070        0.48067018448861       -1.86544527097403
C            6.01108271638530       -2.69942361248003       -2.13145705545873
H            5.28949937830678       -4.34994523579651       -0.97633869783801
H            6.52173509033136       -0.87521401600264       -3.13016771851257
H            6.72104664185184       -3.29445300879477       -2.68718174929369
C            3.98922664814771        0.26544220897219        1.32232589904824
C            3.46432733623538        1.54362343191035        1.74431188009066
H            5.04404957025570        0.38496667585107        1.05877430437560
H            3.91030379371747       -0.44919967508792        2.14430960374208
C            3.03701788346945        2.62019972917207        2.04826050619575
H            2.65725592799493        3.54597742062688        2.36369215828686
Cl           0.02555939621850       -2.65337320412907        0.58856295429116
Cl           1.03383906259508       -0.15003495331421        2.96977904881269
O           -1.21065679188739       -0.37816275666466        1.62546429057743
O            0.35245465620308        0.43821153320666       -0.15757174692347
C           -2.46389661798422        0.31036742328039       -0.18766977011698
C           -1.72738953135240        1.57794845874238       -0.13549353662400
C            0.33095454719259        2.72709182248057        0.09687647642432
C           -2.86307139981987       -1.76475247992963        0.84458024578861
C           -3.89412304864033       -2.06749382823663       -0.05424001922320
C           -3.47094539552412        0.08470356107477       -1.09358124295936
C           -4.21768443887350       -1.11820659791375       -1.06496466723898
C           -2.40249896234223        2.76978220617308       -0.14650607972634
C           -1.72083767995168        4.01447033224274       -0.03583518029909
C           -0.30096499268320        3.96794649182919        0.10088096335481
H           -3.68070800800793        0.82871860405725       -1.84511077040147
C           -5.24623110162575       -1.40295151102567       -1.97019072027916
H           -3.47887371202164        2.75989073258622       -0.20539158754624
C           -2.37330900811282        5.24458951512810       -0.03607346526680
C            0.41015451868072        5.18010199802539        0.22938057495876
H            1.39597397735230        2.60827701046392        0.21021678468892
N           -2.18507828852239       -0.62014540902407        0.76121787982647
N           -0.37362410706040        1.57988368160619       -0.03967963494496
H           -2.56143857964504       -2.43448730321062        1.63142187441969
C           -4.61566724033934       -3.27386420094136        0.01092500674071
C           -5.93794126683068       -2.59337831488605       -1.88308187011081
C           -5.62038641644399       -3.52574861745427       -0.89473072391007
H           -4.36225182565778       -3.99259536814446        0.77388059947304
H           -5.48883158798254       -0.68076690197627       -2.73523508083960
H           -6.72967728329286       -2.80749324233479       -2.58473031609821
H           -6.16999366893113       -4.45341271711365       -0.84344869469921
C           -1.65102477404011        6.41912769155228        0.09343145082256
C           -0.26410925890443        6.37948591133988        0.22470155327746
H            1.48442901693068        5.14804232886513        0.32406373720193
H           -3.44804949640650        5.27235443540668       -0.13721106536866
H           -2.16357558199756        7.36859755206136        0.09354142784151
H            0.28655114240101        7.30307754219663        0.32436406226051
