57
 energy: -99.545131601018 gnorm: 0.000644608755 xtb: 6.5.1 (b24c23e)
Si          -0.94073911055584       -0.57104841388668        0.64593966561116
O           -1.81185112357117        0.24828807286727       -0.44042490239293
C           -3.17522855482585        0.60535919058267       -0.39984205119527
C           -4.06167376008159       -0.60776956158809       -0.50884381594074
H           -3.37981000935934        1.11919683869657        0.54790834683070
C           -3.69214721445914       -1.66259230070666       -1.33165288959304
C           -5.24751329797621       -0.68325199434146        0.20768977045185
C           -4.49558898669581       -2.78371865134160       -1.43170043558012
H           -2.76019487415321       -1.60450006268002       -1.87396469862638
C           -6.05452538773093       -1.80170576126854        0.10024949293344
H           -5.52950712606099        0.12967207504367        0.86070087917233
C           -5.67994713725638       -2.85368670139292       -0.71837064805017
H           -4.19558773612967       -3.60531949631055       -2.06528877085647
H           -6.97351300609903       -1.85644565652545        0.66502741449305
H           -6.30696736717642       -3.72992777481204       -0.79462439033785
C           -3.42744339998163        1.56657161726500       -1.57493078446205
C           -2.59547740007061        2.74503151105141       -1.46428062818903
H           -4.48229788858773        1.85141725453522       -1.58070786477907
H           -3.19250650104740        1.04674918428358       -2.50675557849802
C           -1.87838984695575        3.69537493394953       -1.34466214326920
H           -1.26149597774967        4.53976106932434       -1.26088418252451
Cl          -0.93030025487577       -2.62683252212177        0.88340609641604
Cl          -2.19512733975926       -0.28073887577821        2.36659176059824
O            0.25147199031382       -0.74479186552875       -0.76710745251991
O            0.28437351639978        0.33171366491431        1.47204739825930
C            2.43055471918347       -0.31199050574063       -0.10794723707788
C            2.02271970155220        1.08433234358985        0.08292385507242
C            0.45506879399518        2.58809853149970        1.01728355010117
C            1.76957589626871       -2.48060201169347       -0.74511597601166
C            3.06135484778420       -2.98257890387294       -0.54629353261830
C            3.72151435649931       -0.73206763504993        0.08669673312718
C            4.08533298811578       -2.08760341598187       -0.12172212901887
C            2.71584963476449        2.12363543876220       -0.47823943198442
C            2.28924576678893        3.47035456422050       -0.30587769698287
C            1.11143072561255        3.68984607627018        0.46866097347880
H            4.46079009748802       -0.02456239253165        0.42580262637321
C            5.38184461670067       -2.56990989011976        0.07506014591244
H            3.58209740231598        1.91268671431873       -1.08417979622310
C            2.95748444905338        4.55855605125386       -0.86457619125267
C            0.65309556199388        5.01108835674372        0.65348613236523
H           -0.43911701192188        2.66854928156071        1.61096176059680
N            1.48683984014026       -1.19104473962791       -0.53199517528191
N            0.92789102531130        1.34104316620706        0.83811880578404
H            0.94674065081297       -3.09735114617014       -1.06289178427333
C            3.38037122431980       -4.33802055494303       -0.75507904075301
C            5.66756767505582       -3.90439379134707       -0.13834949754068
C            4.66644782257012       -4.78336489894987       -0.55060049121558
H            2.60166233255887       -5.01459840616989       -1.06955180476368
H            6.15411881087210       -1.88784301428043        0.39749691058075
H            6.67074242394881       -4.27081167203268        0.01697221477531
H            4.90574777542663       -5.82394902169592       -0.70939119480280
C            2.48458771404224        5.84489872782909       -0.67001336260555
C            1.33578388104861        6.06434842308390        0.08813028465950
H           -0.23566328924142        5.17673484466820        1.24266411221698
H            3.84732053095651        4.38669397596268       -1.45141261642045
H            3.00680285025589        6.68200409321831       -1.10690350243212
H            0.97837998017089        7.07333163678419        0.23159176826169
