57
 energy: -99.544746239019 gnorm: 0.000275621506 xtb: 6.5.1 (b24c23e)
Si           1.09161604336703       -0.25362301927288        1.26291926603936
O            1.62291149313036       -1.46303791721310        0.33865704192172
C            2.16049114580718       -1.48128275849606       -0.96474644469858
C            3.63790310270189       -1.17993920995593       -0.93640762626773
H            1.64287587129388       -0.73379212569910       -1.57387333131335
C            4.40132723366175       -1.49388826264836        0.17902420809644
C            4.24897197548438       -0.59857272743657       -2.03991178964622
C            5.75809747058053       -1.22216244660860        0.19319242855990
H            3.92394529538956       -1.93637582048195        1.03987576806655
C            5.60665859024353       -0.33477914027377       -2.02710097336033
H            3.65550093191225       -0.34897337327160       -2.90859798105225
C            6.36363269797233       -0.64495403660144       -0.90951088513619
H            6.34230981566834       -1.46234574246201        1.06890037308066
H            6.07407898660417        0.11931252605960       -2.88880794568694
H            7.42262553605873       -0.43298520042428       -0.89816436107576
C            1.90721231654241       -2.88354645355114       -1.54964803783333
C            0.50682413160512       -3.06994760588265       -1.86094266706179
H            2.50371537807602       -3.00553053588042       -2.45736320165648
H            2.22435140470452       -3.62509469039007       -0.81265804666577
C           -0.65767631668084       -3.17710144463338       -2.11555335226405
H           -1.67322079226681       -3.30096444745655       -2.34696221414639
Cl           2.11434358878872        1.47059782177602        1.72257939317429
Cl           1.54895379785571       -1.25643765195978        3.04787857520340
O            0.48903413545481        0.65801646502829       -0.38775372460539
O           -0.57120079036195       -0.26304983756069        1.68567088095980
C           -1.60341026936162        1.58827701816477       -0.07472733004500
C           -2.12610656622955        0.21864976449731       -0.01437728361823
C           -1.90136093322943       -1.96754058802983        0.86795402292275
C            0.29450455707659        2.94632953459258       -0.37931016937173
C           -0.47117006190529        4.11623503012810       -0.29424688265805
C           -2.41514907266866        2.69229600404240        0.00274094487635
C           -1.87687540407138        3.99935000134824       -0.09837084515103
C           -3.17610902160615       -0.18374718507807       -0.79468085442800
C           -3.63724866424417       -1.53059986215200       -0.77183275892666
C           -2.95262183734355       -2.44331916802095        0.08656251381010
H           -3.47252281002058        2.55776854953484        0.16379082022602
C           -2.65665677499751        5.15733258273136       -0.01440133308551
H           -3.63698694729939        0.52526177519695       -1.46337599332515
C           -4.69069255980309       -1.98692666860312       -1.56137603169242
C           -3.36100478885916       -3.79383655880544        0.10940927381513
H           -1.33611608480525       -2.58788321950218        1.54143377748244
N           -0.26757482899741        1.73996997631094       -0.27120331501878
N           -1.53737732975205       -0.67000711774934        0.82303683585787
H            1.36129544979957        2.95910381777745       -0.52541020530155
C            0.10299186878540        5.39662937944370       -0.39993612614262
C           -2.06757017221547        6.40115399859244       -0.12103886321136
C           -0.69098248542689        6.51745686402530       -0.31286515372828
H            1.16866302128801        5.48090138286979       -0.54346751233126
H           -3.72168122850584        5.06486653301441        0.13637895975226
H           -2.67489748258635        7.29085711333919       -0.05400872649848
H           -0.24621439188607        7.49782989141068       -0.39248907545626
C           -5.07285887607221       -3.31742414390082       -1.51748631753339
C           -4.40438193436180       -4.21300224231165       -0.68411836414915
H           -2.83839616070079       -4.48540348329656        0.75088636123851
H           -5.20367679511762       -1.29241909042009       -2.20998646911681
H           -5.88848950551196       -3.66319461804787       -2.13364283968974
H           -4.70910695297435       -5.24870363582702       -0.66440841217729
