57
 energy: -99.539079729770 gnorm: 0.000478203405 xtb: 6.5.1 (b24c23e)
Si           0.72935076242088       -0.58915165509980        0.81631564671245
O            2.26016134216055       -0.54642667638189        0.22694459858208
C            3.34277886494049       -1.42379050250063        0.37920629525856
C            4.47739862353289       -0.96100689576497       -0.50074009908384
H            3.02591442114490       -2.43423240786451        0.08124063745978
C            4.73848280756787        0.39480664205026       -0.64298435113763
C            5.29819838463998       -1.88192795600743       -1.13720035390071
C            5.80206777668580        0.82435429311454       -1.41595054031573
H            4.09335012751376        1.10509282837612       -0.14924798185890
C            6.36590584152945       -1.45185222303813       -1.90517771872523
H            5.09825441927278       -2.93875817550653       -1.03012095526229
C            6.61980341707092       -0.09807869619362       -2.04638921104750
H            5.99670448934619        1.88160144228567       -1.52428319063629
H            6.99987857618153       -2.17522467301699       -2.39701550644236
H            7.45248642703351        0.23662760249773       -2.64763790745352
C            3.83507861014278       -1.47336271149080        1.84370648443668
C            2.96491289299619       -2.27539488829770        2.67353384725565
H            4.84279707325205       -1.89739552672085        1.86030285247593
H            3.87087312583555       -0.45186778421410        2.22954950571476
C            2.22713721667869       -2.95883435366918        3.32195023247652
H            1.58326265824634       -3.54435889439137        3.90672502763950
Cl           1.05191438621578        0.47148154031742        2.54364080496901
Cl           0.35474303537311       -2.59317881281173        0.43545971237486
O            0.16794777965244        0.34049224778841       -0.50137615240799
O           -1.12925120885831       -0.48153402081200        1.49231137138130
C           -1.95839535549829        1.32887769881863       -0.29242580170102
C           -2.56616928720762       -0.00655279287208       -0.25146784657216
C           -2.64888853933731       -2.08136819283431        0.85368139569157
C            0.01658894733862        2.63516898876329       -0.25230427336725
C           -0.70984074636027        3.82284160046033       -0.20012566228611
C           -2.72718417291907        2.46038139174725       -0.25987621623664
C           -2.13574663345430        3.75551676480356       -0.22563702413734
C           -3.60263710780169       -0.37187026596467       -1.07342927358596
C           -4.20208121897833       -1.65113612012641       -0.96294534570979
C           -3.69851866104539       -2.52701403744782        0.04048600101929
H           -3.80035367057084        2.36573697097368       -0.22090493161865
C           -2.88123442965650        4.93137124209881       -0.19265973129250
H           -3.94927182126522        0.32066553893679       -1.82339102259501
C           -5.25179254797579       -2.07876600133142       -1.78267296603789
C           -4.26918463985441       -3.80524706555021        0.18551930051631
H           -2.21941790644982       -2.68782123433461        1.63276284477489
N           -0.60707932793227        1.44036418434417       -0.33281729816158
N           -2.11558756860134       -0.86868076453677        0.69679728712786
H            1.09164905027309        2.59579312219033       -0.24535221419585
C           -0.09009088181323        5.08864374845061       -0.13061494052128
C           -2.24687399037489        6.16071937880292       -0.13385295711816
C           -0.85537898522523        6.23139058913941       -0.09963806674762
H            0.98680333516673        5.14145396985769       -0.10300949039320
H           -3.95930890240258        4.87360871412464       -0.21232710603552
H           -2.83155550627400        7.06727723967266       -0.11030783616063
H           -0.37396712876094        7.19655398577492       -0.04807902350262
C           -5.79316465890338       -3.33775771627553       -1.61887321429776
C           -5.30068918441049       -4.19714386604444       -0.63672696450709
H           -3.88151444422874       -4.46740043373960        0.94350973707914
H           -5.63029294356468       -1.41267478250998       -2.54339536836356
H           -6.60256621850066       -3.66172492258963       -2.25523607093739
H           -5.73460170398930       -5.17911167545996       -0.52335996858817
