57
 energy: -99.541722464642 gnorm: 0.000709588876 xtb: 6.5.1 (b24c23e)
Si           0.17223160557048       -1.46159227494530        0.93254653019346
O            1.47065808310217       -2.37878303571330        0.50294243680991
C            1.93822470026497       -2.65355546583674       -0.79703789243364
C            2.90842411533285       -1.57956194308569       -1.21972126655681
H            1.09138724616703       -2.68018086372688       -1.49538154691861
C            3.89982766056786       -1.16953930101058       -0.33615653104622
C            2.81484049187468       -0.97245188619650       -2.46374741429682
C            4.78540245988317       -0.16756088856498       -0.69380481091155
H            3.95339575266242       -1.62574673656464        0.64120764590691
C            3.69962974099570        0.03095209081304       -2.82035456251625
H            2.04058993914525       -1.28220930022158       -3.15101961161212
C            4.68649974147565        0.43542193854170       -1.93736350987383
H            5.55221213044504        0.14467139651277        0.00080094538366
H            3.61617048166999        0.50164768857046       -3.78919412746187
H            5.37417640077950        1.22038593913218       -2.21637576216417
C            2.62466895167958       -4.03185534924945       -0.78853411346336
C            1.65292864881629       -5.08236102967549       -0.57562758892699
H            3.13291509365559       -4.18298255202971       -1.74506172547933
H            3.36208435059607       -4.04864763883539        0.01706444493552
C            0.81395744022185       -5.91668810552250       -0.39909732603528
H            0.09103547591383       -6.66031310682627       -0.24463772125246
Cl           0.80465884694826       -1.41740606576178        2.86854887686068
Cl          -1.28203236124648       -2.62806372001128        0.00320892804968
O            0.48729253695052       -0.19278478198713       -0.22059765151246
O           -1.18999066865731       -0.33756087918121        1.63029058762852
C           -0.61629483201564        1.85753837471688        0.15307391346248
C           -1.91984516979226        1.19138566244329        0.04458666337033
C           -3.33631843358565       -0.51773021024658        0.82805741065135
C            1.74303368710297        1.68396811562829        0.22973028913273
C            1.89056282922376        3.05670917092328        0.42167073689149
C           -0.53526051457421        3.21313975036872        0.33774089704614
C            0.71981334321876        3.87045830912065        0.47063527577713
C           -2.91219367661874        1.67220291716390       -0.77320701293948
C           -4.18190140245757        1.04420344047607       -0.82671418488317
C           -4.38797427160311       -0.09081690628990        0.00886251048584
H           -1.44458402100534        3.78728506170213        0.41190266077359
C            0.84569349441468        5.24579967173466        0.65491464688492
H           -2.71163907406919        2.52781348023200       -1.39763470129492
C           -5.22063597794536        1.48785924715157       -1.65067876740426
C           -5.63550631390089       -0.74245859209471       -0.01469549600940
H           -3.41743670489451       -1.36667299419795        1.48498238637058
N            0.52385617858584        1.12710504092174        0.07449387882338
N           -2.15852442748857        0.11146327692884        0.83060995392367
H            2.57640570277592        1.00522723363090        0.16980421064298
C            3.15351628753696        3.66733677677260        0.56316815859209
C            2.09803059292741        5.82061513393266        0.78876276583531
C            3.24400019281505        5.02880487696701        0.74292135282742
H            4.03700475529565        3.04978257160861        0.52588229767070
H           -0.04337584015204        5.85732424323729        0.69267578809464
H            2.18765513656356        6.88647864877476        0.93116424494915
H            4.21361575879322        5.49153459025540        0.85057588593620
C           -6.43487254922705        0.83068659237592       -1.65333212964853
C           -6.63814976856528       -0.28200241594691       -0.83710812592961
H           -5.78614106468833       -1.60510416509535        0.61474624612412
H           -5.06041969980948        2.34798073057718       -2.28332314512451
H           -7.23257017887372        1.17821441852985       -2.29195765298176
H           -7.59290290280424       -0.78550618092663       -0.85352619135760
