57
 energy: -99.544301824114 gnorm: 0.000567678138 xtb: 6.5.1 (b24c23e)
Si           0.06703049690819       -1.97221802791029       -0.55144696315168
O            1.61220633962235       -1.49084175388786       -0.62221762139746
C            2.79381160980735       -1.38324822096338        0.14249535454636
C            2.64479636218859       -0.27382878553313        1.15697777013981
H            3.55717416366437       -1.09194813105094       -0.59496256190228
C            1.64650920462987       -0.32853469864053        2.12175809455548
C            3.47817800138205        0.83618764740815        1.10769280688666
C            1.46772191119061        0.72547645004567        2.99993001632667
H            0.99979987119256       -1.19003670686831        2.17736040122211
C            3.30921998950722        1.88200900038575        1.99762867019117
H            4.26383630645195        0.88388256122466        0.36700794958383
C            2.29517401419245        1.83390465254420        2.93823427155683
H            0.68156598222987        0.67676503301359        3.73902227776283
H            3.96499512623230        2.73858840178912        1.94852881545734
H            2.15440113153930        2.65538018881196        3.62537546129668
C            3.24444013458115       -2.69920426680643        0.79602300059595
C            3.41427173607967       -3.72586919929990       -0.20952491419943
H            4.19300842421246       -2.51380858944188        1.30782698669612
H            2.50341979552532       -3.03174944658382        1.52347521226818
C            3.52964539996622       -4.53425766491864       -1.08356643188411
H            3.62622628389295       -5.26801972008493       -1.82633394208506
Cl          -0.66128448377171       -3.11642761418470       -2.06714504529238
Cl           0.15261095910753       -3.53122856150479        0.88973845380853
O           -0.94211724686339       -1.15530386031577        0.59523619440542
O           -0.32031093304112       -0.52147425556988       -1.73038271531117
C           -1.85630777837714        0.91385897567544       -0.08092714632512
C           -0.51962939951723        1.39405095548117       -0.44818542976812
C            1.36569024252557        1.03964219896931       -1.80787616169961
C           -3.23007808676755       -0.90108909244308        0.56565522064598
C           -4.38703849909686       -0.13173120815526        0.45431592750651
C           -2.95347539667201        1.72534314309275       -0.19215532744754
C           -4.26300846936617        1.24022707137269        0.08072963077775
C           -0.00376007776270        2.58037478985337        0.00841733018103
C            1.26569876319443        3.03486245897494       -0.42796605784858
C            1.95912129427170        2.23216193829962       -1.37812490326559
H           -2.82229019261549        2.74125252434973       -0.52823183975030
C           -5.40569035019978        2.03109702547589       -0.02371942798292
H           -0.56448505749492        3.15912467874785        0.72418962389366
C            1.85188391048358        4.21900898400377        0.02729935324031
C            3.21854894722323        2.65521037309152       -1.84336645506598
H            1.83179888220335        0.37036471251429       -2.51095140989654
N           -2.01245326066476       -0.36954427004308        0.32913372354313
N            0.17786797089856        0.64872304712629       -1.34109604264463
H           -3.23601814620464       -1.93689385731641        0.85917157501388
C           -5.67255005283080       -0.65651250854300        0.70399784073219
C           -6.65412231392358        1.49178054934787        0.23137496627430
C           -6.78049026359428        0.15075651408011        0.59172662295089
H           -5.76777962787490       -1.69419109266969        0.98224789499674
H           -5.30531192989305        3.06807399266627       -0.30742229319599
H           -7.53445313564000        2.11009737754730        0.14816491444991
H           -7.76148055686033       -0.25703388007360        0.78412565445520
C            3.09134247085121        4.60758820998814       -0.44131618814753
C            3.77007232203943        3.82609301859906       -1.37517194406108
H            3.74067531345620        2.04732279235415       -2.56601373455893
H            1.32428517292225        4.82245773062205        0.75022619695153
H            3.53894041018394        5.52250533861108       -0.08401084730977
H            4.73767431467367        4.14444807674168       -1.73312980872155
