57
 energy: -99.546683597004 gnorm: 0.000294671980 xtb: 6.5.1 (b24c23e)
Si           0.19239898022384       -1.78845545700527        0.49635255333938
O           -1.34477457022727       -1.33675741699928        0.77502587216385
C           -2.57340320758549       -1.95903967469781        0.47355695755191
C           -3.15747495953022       -1.35878048919959       -0.77953648060201
H           -2.40747463881453       -3.03199874246337        0.32990842864798
C           -3.20310994982046        0.02189455190453       -0.92525974174965
C           -3.64754006087586       -2.16607315785204       -1.79567441756668
C           -3.73513977278741        0.58894657493834       -2.06852404464596
H           -2.81120588008350        0.65357992357526       -0.14137091656047
C           -4.18584422667948       -1.59784087350479       -2.93714543255130
H           -3.59511815560352       -3.23971856032077       -1.69505039081063
C           -4.23231904502446       -0.22098958389738       -3.07551279106281
H           -3.76282785932297        1.66463785678722       -2.17023245384971
H           -4.56466473070606       -2.23275856108615       -3.72434501678513
H           -4.65058122825327        0.22043843155808       -3.96829982958964
C           -3.51812860827473       -1.74127209786678        1.67162158341483
C           -2.88181033354113       -2.18111385443804        2.89512279825319
H           -4.43978138689479       -2.30274701788985        1.50174355865549
H           -3.76210277555812       -0.67763746364560        1.74738346391269
C           -2.29228993590345       -2.52841115077172        3.87666109186683
H           -1.79218410382732       -2.84638963942705        4.74196992922494
Cl           1.35073240864710       -2.89521364766775        1.76095503496604
Cl          -0.20848065451123       -3.35588904202324       -0.88669044388599
O            0.90104467862303       -0.93578061487190       -0.82513497417728
O            0.69194641828369       -0.36118004935014        1.59608811941528
C            1.83828255538134        1.15926836637896       -0.26439649352594
C            0.57005616165678        1.57849352439997        0.34555045045384
C           -1.02063219999640        1.11715828507989        2.01967285290613
C            3.14851923884232       -0.58424460182337       -1.18058466829328
C            4.28113452321179        0.22639802805708       -1.23608289677221
C            2.90841602404755        2.01158240840416       -0.31533484698454
C            4.17146990364051        1.58477701102845       -0.81212087471314
C           -0.07117043486699        2.74498538896475        0.01389686079419
C           -1.26822362631160        3.12589541090957        0.67392990084792
C           -1.74251023916945        2.27885991435939        1.71808744997135
H            2.79907194193301        3.01405353505485        0.06622349410330
C            5.28785898635086        2.41700835478942       -0.87207987840209
H            0.32553207560374        3.36099116352768       -0.77667899345779
C           -1.99232479740037        4.27390155353175        0.34102883200491
C           -2.92894350732349        2.62267859230743        2.39442152802061
H           -1.32414619588380        0.41190903158748        2.77560854130745
N            1.96832335301299       -0.10694010380054       -0.73501273984468
N            0.07748286216655        0.79256598223615        1.33368888461784
H            3.14307400321675       -1.61346069052960       -1.49655377003761
C            5.52765910299124       -0.24442276935743       -1.69967984294158
C            6.49694746072361        1.93067510865032       -1.33635628720285
C            6.61064185125650        0.60209215633807       -1.74466904548972
H            5.61294836423412       -1.27247720924897       -2.01435399296923
H            5.19861025659143        3.44369479565998       -0.54986724178374
H            7.35730941195732        2.58041510835313       -1.37935574885197
H            7.56203289000844        0.23562223398107       -2.09986087617476
C           -3.15654751137677        4.58439249375162        1.01712493771599
C           -3.62041146807086        3.75945491274318        2.04073199463585
H           -3.28487338334370        1.97961434243881        3.18463829702806
H           -1.63177652822077        4.91134943156387       -0.45221732324338
H           -3.71177324961635        5.47095606672980        0.75166723424128
H           -4.53187722723062        4.01575993012291        2.55924480445861
