57
 energy: -99.547105585172 gnorm: 0.000652144824 xtb: 6.5.1 (b24c23e)
Si          -0.31498696408612       -1.78836857019002       -1.03312033589574
O            1.00399517797007       -2.24547779071841       -0.22965097667468
C            1.45064828208124       -2.06562574052059        1.10004875663199
C            2.59966175959465       -1.09026774498733        1.09977866870960
H            0.62969500646834       -1.67696169936591        1.70613383362716
C            3.65341334458378       -1.26344661148908        0.21076811698016
C            2.61685606565785       -0.00992010974547        1.97061370384550
C            4.72036003683609       -0.38400935406896        0.21383084943120
H            3.62367600016074       -2.08660114684406       -0.48706210388005
C            3.68455438202520        0.87088434447935        1.97170187269212
H            1.79076457483097        0.13837453372532        2.65185475585903
C            4.74190449589705        0.68003153294891        1.09977217171206
H            5.54030672324132       -0.53135588480310       -0.47342514427348
H            3.69061361784363        1.70873327303712        2.65324605861686
H            5.57788763602873        1.36319255256221        1.10695391040977
C            1.87547707146627       -3.43731276674511        1.65231882048057
C            0.71823943538668       -4.29655690615139        1.78415950911268
H            2.35320727723458       -3.29811695756702        2.62583326997664
H            2.59087002006451       -3.89203790267268        0.96361354904708
C           -0.27170435023820       -4.96312033610695        1.86636299628584
H           -1.12509423938034       -5.56817427346883        1.94005551747250
Cl           0.38271140345980       -2.65671660807440       -2.80222395116408
Cl          -2.15245972752739       -2.69283457873038       -1.04466576644979
O           -0.91597705200817       -0.83405824414921        0.61244175037206
O           -0.32655609741414       -0.21539232141415       -1.74309943439436
C           -1.65728732159437        1.28826973730487        0.11053721115714
C           -0.26856731846496        1.60031611028298       -0.25103275143610
C            1.63373636611017        1.00087282436628       -1.52964110938819
C           -3.15340484392785       -0.36674869440178        0.86146582247815
C           -4.23130494995739        0.52690549615047        0.82146400479226
C           -2.66099701016979        2.22239379524432        0.07379939709554
C           -3.98910437119584        1.87336285736164        0.42526247475140
C            0.40659674957440        2.65796270064202        0.29347768193118
C            1.75717059207539        2.93337434282274       -0.06598045675994
C            2.37220854125415        2.06650326771551       -1.01803567648970
H           -2.43614727937360        3.22492828212901       -0.25256059718436
C           -5.05366554057296        2.77992239638060        0.38888235954474
H           -0.08954616741058        3.28041126520359        1.02063861036622
C            2.48365661320156        3.99478770707161        0.46704239781082
C            3.70174185514425        2.32147764514433       -1.41154320540096
H            2.02506468733691        0.29603644262231       -2.24255942142286
N           -1.92260770879058        0.02000335072740        0.51903096857906
N            0.35139831642373        0.80598366264958       -1.15847310499138
H           -3.26068364880235       -1.39706249647445        1.15558525239166
C           -5.53972865883310        0.13711014149200        1.16373447637575
C           -6.32697024549602        2.37091436481457        0.72982025750266
C           -6.56674999089707        1.05151635297271        1.11414819634456
H           -5.72008943416002       -0.88523032398044        1.45625607119735
H           -4.86620924296979        3.79956207546915        0.08755731839168
H           -7.14455672843695        3.07472913865608        0.69654644256262
H           -7.56945308749734        0.74738852896311        1.37375796516877
C            3.79017876409037        4.21980567775410        0.06689852278844
C            4.38894584673491        3.38575909735017       -0.87419253375687
H            4.16361192084485        1.67190859032061       -2.13781007597964
H            2.01534499262302        4.64387507820280        1.19205815543916
H            4.34473108136685        5.04690832084869        0.48282932903739
H            5.40554634159633        3.57719957525520       -1.18394538142424
