63
 energy: -105.883490955794 gnorm: 0.000325065910 xtb: 6.5.1 (b24c23e)
Si          -1.08152496870543       -0.69683378972679        0.57694666881535
O           -1.94020600767804        0.22016414077457       -0.44122609508630
C           -3.30125897934105        0.58200837166855       -0.38829671904130
C           -4.20059481318922       -0.62365021855322       -0.46940346078461
H           -3.49044153612439        1.11241329326013        0.55368017437441
C           -3.85608417716471       -1.69109164259874       -1.28666291559576
C           -5.37688582723806       -0.67722882531114        0.26444754165885
C           -4.67233268176983       -2.80505964436871       -1.36037161398881
H           -2.93315688845889       -1.64998791259956       -1.84576833418403
C           -6.19716278323062       -1.78808179810812        0.18294607959409
H           -5.64045388461529        0.14658638549224        0.91143100621872
C           -5.84568110465459       -2.85422954648276       -0.62753225339374
H           -4.39012022473188       -3.63711565661653       -1.98849209324682
H           -7.10803876535281       -1.82581712478640        0.76209153528174
H           -6.48232913207796       -3.72508516398818       -0.68238061760194
C           -3.56417379118065        1.52440988769619       -1.57668212571848
C           -2.75201937898132        2.71800527799456       -1.48389360448686
H           -4.62350638631921        1.79285410949184       -1.58875682054851
H           -3.31978437280977        0.99302951483176       -2.49959421168508
C           -2.05885241253665        3.68856164305267       -1.38741505307483
H           -1.46175014578209        4.54749613012357       -1.31122246216796
Cl          -1.03564716104697       -2.75901323112124        0.68901952077459
Cl          -2.37926618435748       -0.53429143881164        2.29368111984821
O            0.10602509573499       -0.75266194625003       -0.85779121989377
O            0.15417709453341        0.10523620067030        1.48998309092606
C            2.25312830834328       -0.32840883244966       -0.10105369251726
C            1.76942450589534        1.05557976858099        0.08417224429842
C            0.16825895003422        2.39781436805309        1.20154372266759
C            1.64947504488397       -2.46654538960772       -0.89356475954680
C            2.92463628241709       -2.96742057931223       -0.61946128281628
C            3.51770693998928       -0.74962840776705        0.23682856200894
C            3.89596199674557       -2.10651067055364       -0.03269972329111
C            2.30092472711535        2.14405274313196       -0.56228065222472
C            1.77788220513574        3.45425901389816       -0.28029854915699
C            0.68806536275336        3.55801334176916        0.63405560075615
C            5.16585595701371       -2.61941447830616        0.24698260801136
C            2.28414567830651        4.61986481518866       -0.85489015935809
C            0.15136604051774        4.83009454079141        0.93102681809216
H           -0.68061280060117        2.38708186792711        1.86257684487229
N            1.34682645085525       -1.19311840435986       -0.63076827303611
N            0.72329735005994        1.20453950416877        0.93614412605148
H            0.85623351875746       -3.07172594894961       -1.29594368219999
C            3.26196020614528       -4.30839528044496       -0.89544825759781
C            5.47247988865959       -3.93714383397594       -0.03596144180641
C            4.51913779366520       -4.78007820170678       -0.60387824061752
H            2.51335157331429       -4.95119705549717       -1.33062421430793
H            5.91923078877614       -1.98528712824062        0.68540778463447
H            6.45812739394794       -4.31595082546424        0.18743419101023
H            4.77235570175877       -5.80817377439659       -0.81421438422369
C            1.74291705823882        5.85673569843235       -0.54487735694399
C            0.67757196052554        5.95764231843379        0.34678173353062
H           -0.67741670519784        4.89400272410240        1.61858238275647
H            3.10997678115083        4.56764831897928       -1.54572664724084
H            2.14990101516373        6.74728515297218       -0.99879468067993
H            0.26281228848583        6.92786590347288        0.57725233892197
C            4.48436813388831        0.17148509091849        0.91358959772070
H            5.34639672717679        0.36439348111677        0.27564439799988
H            4.01591014978052        1.11904683088334        1.16132994450679
H            4.84300686592440       -0.28698134803323        1.83397742625163
C            3.38422818446629        1.98559525050468       -1.58332415467869
H            3.08008723952567        2.46343628077156       -2.51345574728495
H            4.30658706406106        2.45887267873750       -1.24746943230444
H            3.58448378939834        0.93787845049548       -1.78533112924879
