63
 energy: -105.877129531572 gnorm: 0.000675904784 xtb: 6.5.1 (b24c23e)
Si           0.93757684995792       -0.47948060433703        0.00593406060925
O            2.44194074822351       -1.06231853874666       -0.00171593051618
C            3.62012656936596       -0.76293527859825        0.70325805049222
C            4.79248318669445       -0.77083614525104       -0.24311012905263
H            3.52919824016329        0.22093624906374        1.17665140794258
C            4.80675577651025       -1.62330608977994       -1.33859224393713
C            5.88293301417896        0.05619311469270       -0.00738951779871
C            5.89683776932624       -1.64368479158550       -2.19044760087998
H            3.95113058164645       -2.25445178069716       -1.52355762356166
C            6.97483422475149        0.02950616466628       -0.85640358792184
H            5.87153136023998        0.72462103331885        0.84197921627756
C            6.98362871156785       -0.82033928093294       -1.94981720263214
H            5.89787566258785       -2.30476761107184       -3.04468943750989
H            7.81880708360788        0.67682329909735       -0.66685132942219
H            7.83463407172276       -0.83688130470891       -2.61502322613425
C            3.81694813256713       -1.83301816420924        1.79740027108867
C            2.72801786243278       -1.78534420842187        2.74799062252163
H            4.76854233055931       -1.65385616256247        2.30407800035301
H            3.84396261823443       -2.81617540346897        1.31994967647251
C            1.78800142884445       -1.70104909040665        3.48355859821052
H            0.98235166739739       -1.64298850891735        4.15221833040444
Cl           1.40392450183989        1.26524142221134        1.24951887457890
Cl           0.44108162994681       -2.18599173332383       -1.20750859174312
O            0.18108324766720        0.48566388362901       -1.21898372882941
O           -0.41256995330138       -0.69391451624785        1.07383644787601
C           -1.78381117392630        1.24532271859161       -0.21198485371603
C           -2.25705400959032       -0.16114953588041       -0.25211642186685
C           -1.93873342247787       -2.35890829983246        0.57220491968893
C           -0.09065422114856        2.75900507046103       -0.88509056870097
C           -0.79244081671816        3.84200728252579       -0.35928080270832
C           -2.51695708494509        2.25210322219317        0.36502715662725
C           -2.03419260339770        3.60494050425479        0.29909833091553
C           -3.34872311057443       -0.54603944563299       -0.98845725634528
C           -3.79099115683985       -1.91272542289571       -0.93303953098682
C           -3.05843650417054       -2.82206422617920       -0.11575844620091
C           -2.72262878088678        4.69099115159288        0.84108749173719
C           -4.89842653102175       -2.38723167083422       -1.63735610410822
C           -3.46606760789634       -4.17116104655686       -0.04134068071252
H           -1.29798482270217       -2.99515603680712        1.15668949237397
N           -0.59383645992476        1.52103039855710       -0.81078257245148
N           -1.58320634227155       -1.07067852961009        0.50322371428103
H            0.87959475623240        2.84818921586264       -1.34115538161279
C           -0.29076398251253        5.15825610238506       -0.44349829375713
C           -2.21215871220254        5.97326987330178        0.74154939507452
C           -0.99624868863380        6.20320693185368        0.10123914146530
H            0.65464938042072        5.32159346316684       -0.93604324269032
H           -3.66423716211118        4.53850183086370        1.34310728002605
H           -2.75972446996435        6.80061847335074        1.16632387184174
H           -0.60866490935729        7.20873561142182        0.03537386463602
C           -5.27973118546742       -3.71370133504428       -1.54552130307097
C           -4.56081058988020       -4.60295877351049       -0.74886775079584
H           -2.89715058901649       -4.85072238387372        0.57288174873184
H           -5.46905070134998       -1.71914393174124       -2.26177438407443
H           -6.13860654369505       -4.06219064232519       -2.09840932745732
H           -4.86822290441137       -5.63628611831525       -0.69113690027826
C           -3.79686804967791        1.96293452562150        1.08633833871711
H           -4.63445421291058        2.45513035269109        0.59305814550888
H           -3.99629408460679        0.89661163140899        1.12817495786135
H           -3.73497429201258        2.34241880453494        2.10519112305737
C           -4.06853912799434        0.42384167998277       -1.87337887441086
H           -4.09048031451698        0.03962556528534       -2.89192807210327
H           -5.09718597531842        0.55677939895227       -1.53965487103279
H           -3.57847030925883        1.39240663678446       -1.88265774036854
