63
 energy: -105.876329207176 gnorm: 0.000824871343 xtb: 6.5.1 (b24c23e)
Si           0.95072725802327       -0.31299562834397        0.50849990257145
O            2.55420480226847       -0.33583569833657        0.22702516763882
C            3.51075048485100       -1.35447579931881        0.30040514859416
C            4.73847411163663       -0.95367487313447       -0.47585447881949
H            3.09030492084354       -2.28284418365976       -0.10796497967836
C            5.12649621298693        0.37795846913490       -0.52864094419601
C            5.51741648698014       -1.91653952381925       -1.10312655138340
C            6.27685540067861        0.74228904163571       -1.20521344420425
H            4.51145961700480        1.12042150423836       -0.04351168866185
C            6.67160586156962       -1.55146991742062       -1.77305650402875
H            5.21569395553824       -2.95385460439689       -1.06771754723519
C            7.05368057755397       -0.22155478933453       -1.82515726466994
H            6.57082751628160        1.78108766525951       -1.24487497904226
H            7.27302043775779       -2.30644734579108       -2.25840275123584
H            7.95419388349613        0.06220233051820       -2.35009244062349
C            3.90352307396677       -1.58980415314486        1.77653584756493
C            2.76541153274283       -2.01819947207185        2.55621187491499
H            4.69385810181732       -2.34354186488631        1.81764737683995
H            4.28234756769334       -0.64830317810372        2.18402546694470
C            1.79158505814313       -2.34466620799142        3.17100299679495
H            0.95699223014761       -2.63682717897036        3.73407632674654
Cl           1.22313487571767        1.37783940171765        1.78090118928839
Cl           0.63204009812257       -2.30976608826076       -0.25483593134645
O            0.26985464243128        0.44289513664658       -0.87593553027045
O           -0.58778309828248       -0.43278697345601        1.41850671097590
C           -1.82201811679412        1.26193506687501       -0.21590935354753
C           -2.27051529764108       -0.14979997202326       -0.15593547198351
C           -2.02624031696431       -2.20112572676497        0.99692388372709
C           -0.02840127199834        2.72614344419067       -0.71540156821053
C           -0.79858792393002        3.84352698492918       -0.40310904910641
C           -2.63355447623436        2.30819425836710        0.14622161328253
C           -2.14054640117521        3.65489302861122        0.03914637476429
C           -3.26734727641876       -0.65745073013891       -0.95101280271064
C           -3.69498446246726       -2.01578672506931       -0.75960134787131
C           -3.05416564449743       -2.78365285404816        0.25582682566705
C           -2.90729960899074        4.77770096967263        0.35156667510721
C           -4.70929837205330       -2.61220226951287       -1.51096267159986
C           -3.45483046273680       -4.11883248866963        0.47331669551180
H           -1.46067732791908       -2.73572794252961        1.73926779151732
N           -0.55285581664210        1.49511741617239       -0.64355189308546
N           -1.66626716026065       -0.93241249694953        0.77854724311902
H            1.00560825195683        2.77884423123158       -1.00645981460252
C           -0.27685267678901        5.15160538461951       -0.49822612337475
C           -2.37599976774219        6.05078065979728        0.24069609099575
C           -1.06007614920544        6.23359272511285       -0.17895420586984
H            0.74405455333005        5.27929609182451       -0.82092684253362
H           -3.92695694733350        4.66174789225781        0.68129961012335
H           -2.98545674474186        6.90705226783947        0.48556730951695
H           -0.65697212714482        7.23244147684683       -0.25293541461088
C           -5.08550711246247       -3.92249756511173       -1.27684534032444
C           -4.45560199251640       -4.67350090231921       -0.28645197565120
H           -2.95471238421943       -4.69203994038654        1.23779245913649
H           -5.21036493024644       -2.05121453077009       -2.28312431285788
H           -5.87139051481697       -4.36652927508823       -1.86849598627123
H           -4.75688192389014       -5.69658332856849       -0.11865264792780
C           -4.00894155121302        2.07258681622097        0.68939564825214
H           -4.76280638544646        2.48095807710248        0.01695421112295
H           -4.20511218359866        1.01409016500677        0.82845990342309
H           -4.10978981989627        2.57080266488115        1.65217145349726
C           -3.89332903219833        0.17145596713410       -2.02915123969215
H           -3.80123625450464       -0.34170694897908       -2.98522698750652
H           -4.95340210700342        0.32507834731562       -1.82931655533296
H           -3.41049287356705        1.14044969221185       -2.11124415756999
