63
 energy: -105.885257815234 gnorm: 0.000966922221 xtb: 6.5.1 (b24c23e)
Si           0.21143956771158       -1.83638700863788        0.31607883607302
O           -1.10452071408158       -1.75371178329606       -0.61270871221047
C           -2.36584506321029       -2.36885829530478       -0.54200658268919
C           -3.43130141361036       -1.31032048602275       -0.68588420790762
H           -2.47011728232524       -2.88166414865176        0.42253445125579
C           -3.18962298810100       -0.17764216769854       -1.45179924458519
C           -4.66475213044401       -1.46399625520824       -0.06731784635529
C           -4.16688185296493        0.79058213069106       -1.59482214120941
H           -2.22538661780425       -0.06135439534010       -1.92324880019361
C           -5.64388068637541       -0.49789743979139       -0.21737887541864
H           -4.85327731415750       -2.34103304951783        0.53524811178585
C           -5.39662271956821        0.63102674558478       -0.97997388135935
H           -3.96896274313800        1.67286118021108       -2.18603118642754
H           -6.60169866801187       -0.62456333593649        0.26683106807951
H           -6.16037427926871        1.38613858711424       -1.09317512661445
C           -2.48082520814659       -3.40817069760215       -1.67436534758166
C           -1.52063162507469       -4.47219825359474       -1.47402930090984
H           -3.49504077394356       -3.81490446629195       -1.68443586504570
H           -2.28387184524184       -2.90925599975944       -2.62663435377700
C           -0.70083783946196       -5.31779034992665       -1.26492542331713
H            0.01129994821305       -6.06762388471806       -1.09234134074490
Cl          -0.61392642485390       -2.93961242530007        1.97000212893102
Cl           1.81551680773465       -3.11162396667880        0.13600079038537
O            0.92992924147635       -0.77298151443228       -1.05246039788994
O            0.42238749920359       -0.47594891382560        1.37922124064504
C            1.95171355791314        1.08586879316372       -0.13226195589961
C            0.56777674760072        1.51692707921128        0.15883517412332
C           -1.42376831057822        0.91694785192200        1.29579440063820
C            3.22952545239311       -0.60817654014666       -1.16291229759916
C            4.41942241081650        0.06347142438212       -0.86874000067346
C            3.07418454409060        1.79003400862214        0.23284268308406
C            4.36336644843366        1.29117513510520       -0.14850171489213
C           -0.01470947053666        2.64218123994725       -0.36724558339799
C           -1.37714790948975        2.95578663101000       -0.02421114728659
C           -2.07689522976384        2.05603197033735        0.83369193428997
C            5.55977239021677        1.95088773686486        0.14774619794984
C           -2.04323019637585        4.08630530900965       -0.49518504193531
C           -3.41760519441364        2.32948851338570        1.18008229161980
H           -1.89569739952654        0.17017014126840        1.91016549500836
N            2.05266019841315       -0.09788070051278       -0.79549134824963
N           -0.14062424748265        0.68876239113888        0.96930758774607
H            3.20020823695486       -1.55877349844512       -1.66628969179855
C            5.67094016630177       -0.45732676497558       -1.25633124608206
C            6.77371345782266        1.42126403253027       -0.24731947349196
C            6.82751467580089        0.21677138635379       -0.94602384739779
H            5.69815902601977       -1.39263770098324       -1.79251091133927
H            5.54152731638685        2.88396822940543        0.68720992941246
H            7.68740771176616        1.94469618337977       -0.01024262999953
H            7.78375390426603       -0.18637338447818       -1.24330661209391
C           -3.35812012901055        4.33471242159978       -0.13764107696271
C           -4.04082316739859        3.45471538834257        0.69812185400843
H           -3.93774631887114        1.63612471565511        1.82165612607637
H           -1.53504421331175        4.78367145045657       -1.14159923044345
H           -3.85513760778223        5.21695264893052       -0.51125289139118
H           -5.06603719922028        3.65913164110451        0.96748897605211
C            2.96813773799403        3.03958375365162        1.05030779986130
H            3.32795737572789        3.90154690658427        0.48936956181037
H            1.94149632113040        3.22415019601297        1.35169511567039
H            3.57889869087636        2.94288920680797        1.94676205182827
C            0.72802933360864        3.52167315732237       -1.32486446184012
H            0.14752130918389        3.64265724779057       -2.23820420017839
H            0.88824209020319        4.51011359818841       -0.89492626803113
H            1.69196661527957        3.09512739398956       -1.58474054111545
