63
 energy: -105.883114775936 gnorm: 0.000856300166 xtb: 6.5.1 (b24c23e)
Si           0.54038607695602       -1.17509255716063        1.33316804337552
O           -0.16147051814438       -2.36606704344971        0.49732915428271
C           -0.01971909660747       -2.73494784652961       -0.85945442029318
C            1.38709690637826       -3.19718994860074       -1.13016682568963
H           -0.24633967230647       -1.86592853879640       -1.48617643805823
C            2.03331893536328       -4.01803597515337       -0.21535213793243
C            2.05925343973232       -2.79035424795428       -2.27368200842902
C            3.33653334863977       -4.42265931946114       -0.43973008628083
H            1.51644094369126       -4.31782314180950        0.68414407061484
C            3.36173447843007       -3.19947241716134       -2.49994105461806
H            1.56212762408298       -2.14327925315190       -2.98254932340983
C            4.00284178891204       -4.01511015684077       -1.58310094679262
H            3.83397111423082       -5.05364968271415        0.28159765918912
H            3.88010396017864       -2.87403737803157       -3.39050451024587
H            5.02210755743588       -4.32719835749542       -1.75673461156438
C           -1.04328318189732       -3.84814539904857       -1.14069027375438
C           -2.38385553591679       -3.30417400576203       -1.16901903637226
H           -0.81197817355572       -4.31313436200200       -2.10254377904647
H           -0.96610234427108       -4.59957370513841       -0.35216093147323
C           -3.46515567705207       -2.79271454144611       -1.20142240071694
H           -4.42569051785286       -2.37147899998027       -1.22047090784854
Cl           2.54796383682521       -0.83930477969751        1.60084858685964
Cl           0.22280707130609       -2.14627397235803        3.16317632487678
O            0.70865085119108       -0.19447465336583       -0.40575513454552
O           -0.43436961646957        0.15447035695082        1.81686380658979
C            0.09067587926474        1.99887187701485       -0.05319198149811
C           -1.27822155529368        1.44996510790893        0.04992605007957
C           -2.65988289945706       -0.08488057042808        1.22138568607121
C            2.32814790721710        1.42991670353076       -0.52935404136212
C            2.72872762764480        2.76457265148261       -0.41390665656422
C            0.40597504300110        3.32647647946157        0.12144233629179
C            1.76046974449513        3.75021768566862       -0.07011649967283
C           -2.29818526978373        1.78676933102218       -0.80389799326844
C           -3.59992993774012        1.20005023887079       -0.61495896575357
C           -3.75708791181055        0.24251028919048        0.43141147514295
C            2.17365556710988        5.08125104553619        0.05580896043100
C           -4.70320125181089        1.51951857462976       -1.40403111243485
C           -5.01969916678663       -0.35826095553169        0.63492527942794
H           -2.68417296205867       -0.82872694923998        1.99810185193868
N            1.05544756085600        1.08312672482108       -0.34057365535988
N           -1.47933395828227        0.53398036394773        1.03313075341196
H            3.01333598233344        0.62842791417023       -0.74656192677728
C            4.07036328024195        3.14732239381493       -0.61268085941825
C            3.49435864939911        5.43074270809432       -0.14623965069757
C            4.44159978462948        4.46328010888185       -0.47773098359296
H            4.79382125710588        2.38761370177972       -0.86347592945149
H            1.45776423138872        5.84584776435408        0.31028402631298
H            3.79571969327207        6.46218929534005       -0.04443250857879
H            5.47077269921783        4.75259724987344       -0.62764809471274
C           -5.93320056155008        0.92139796684267       -1.18028920338248
C           -6.08591460918019       -0.01681020635292       -0.16218116176859
H           -5.12348798715215       -1.08611593467898        1.42438170611719
H           -4.61043772021964        2.24441267481765       -2.19658020565201
H           -6.77654521083429        1.18473213766133       -1.80001761294857
H           -7.04942101614158       -0.47787442728774       -0.00098834537095
C           -0.63514924719460        4.31597715832836        0.54236046056491
H           -0.79978445389752        5.06024413090949       -0.23625611172967
H           -1.57867196865267        3.82387066672540        0.75854510370827
H           -0.30361102026865        4.83585253098739        1.44006115922515
C           -2.07148607154015        2.72049573853087       -1.95256101963522
H           -2.40420788621222        2.24980097831925       -2.87668280248371
H           -2.63965892911451        3.64093435968780       -1.82032257236342
H           -1.02047191147556        2.97358741747351       -2.05475177296237
