63
 energy: -105.883505325807 gnorm: 0.000834634326 xtb: 6.5.1 (b24c23e)
Si           1.15770257585652       -0.44598607727199       -1.19899341655991
O            2.10246580947430        0.20847521508872       -0.06149799246602
C            3.49472992175595        0.43343208594824       -0.08524113358253
C            4.25678800605185       -0.85854552158562       -0.22139854355390
H            3.73278172147574        1.08563442802998       -0.93514787294451
C            3.81711078074793       -1.99210758412122        0.44799270566641
C            5.38919683785292       -0.93283883056003       -1.01899321251373
C            4.49448014383541       -3.18973685685346        0.31163419272281
H            2.92627048026437       -1.93225085180893        1.05530720227774
C            6.07074260151947       -2.12978282261079       -1.14849865725221
H            5.72514793438642       -0.05588706980542       -1.55227616045017
C            5.62356839002874       -3.26006693936012       -0.48628682411084
H            4.13753030304400       -4.07025537603405        0.82496558502920
H            6.94652632234163       -2.18294814440942       -1.77829908049959
H            6.15013842896419       -4.19651011037458       -0.59805598271296
C            3.86017246805683        1.14267220401305        1.23055761091729
C            3.17794774553077        2.41383299308787        1.33991469565238
H            4.94183679876590        1.29424718144792        1.26349946509518
H            3.56354121802552        0.50174009909605        2.06396996066107
C            2.58943086270468        3.45396451410410        1.40242912354252
H            2.08238075449861        4.36943853887446        1.47192359361490
Cl           2.46775632988324       -0.15663981547709       -2.88925378648252
Cl           0.91291065327201       -2.45614296601903       -1.61662131874171
O           -0.04084540611760       -0.59903296850945        0.21700600968643
O            0.02383760290715        0.61441857780834       -1.96738706207524
C           -2.13379390000647        0.10890074660153       -0.47967054960700
C           -1.53880354535206        1.46087465316129       -0.44121606921919
C            0.20821109899125        2.81660723110992       -1.29201651377372
C           -1.72500890187498       -2.16179170398515        0.01018468224395
C           -3.03077006447595       -2.50996566980786       -0.34499745438287
C           -3.41829782968863       -0.15375187451903       -0.89329944014044
C           -3.91156736281693       -1.49867006773735       -0.82481022057945
C           -1.99833075613465        2.47429621181245        0.36317157180567
C           -1.35463120975565        3.75997858638633        0.31148058302059
C           -0.22604845697281        3.91005843027815       -0.54770549898336
C           -5.21012148124272       -1.85995982901529       -1.19494132639887
C           -1.77833247694484        4.85805133829612        1.05963997060299
C            0.43268960428095        5.15749180912215       -0.61456665239025
H            1.07401738158650        2.83699229615639       -1.93032529898415
N           -1.31195409200206       -0.89505953690743       -0.07104353150573
N           -0.45875154260763        1.65252968867233       -1.24029094998306
H           -0.99437745349105       -2.88221315460727        0.33317256765322
C           -3.48557721588666       -3.84161847377506       -0.25571892392633
C           -5.63228525265268       -3.17236929018278       -1.09613203430263
C           -4.76912094584722       -4.16102032431012       -0.62765389849277
H           -2.80501152826042       -4.59772177948997        0.10218758396917
H           -5.89502226592914       -1.11143871539744       -1.55904327274077
H           -6.63872274969342       -3.43293290344069       -1.38602695510123
H           -5.11305962499420       -5.18194398719336       -0.55875486431868
C           -1.11830226991162        6.07277455812395        0.97334449681276
C           -0.01366992697339        6.21797303365727        0.13745885979752
H            1.28950743695416        5.25549210756282       -1.26272226627782
H           -2.63201668725961        4.77094952166639        1.71200220541411
H           -1.46276893851294        6.91113212547400        1.55919258070332
H            0.49420012665328        7.16956093106625        0.08243726052172
C           -4.28858660009128        0.93224727174429       -1.44465369773036
H           -5.15222283406683        1.10074101301359       -0.80210507154765
H           -3.73925047739660        1.86372685521093       -1.54100991084860
H           -4.65320721495361        0.64366687352384       -2.42934868302772
C           -3.12729519872035        2.25303461690041        1.32118480185727
H           -2.81696939037681        2.54362848260441        2.32378181994839
H           -3.99116809305644        2.85829885746765        1.04739141885126
H           -3.42677864565094        1.20982316807001        1.34347358015869
