63
 energy: -105.884646394815 gnorm: 0.000458748931 xtb: 6.5.1 (b24c23e)
Si           0.07640019840782       -1.84257983926737        0.30949740646774
O           -1.45969685564797       -1.39988970885296        0.60344444527981
C           -2.67569952939413       -2.07947072241663        0.39160187537556
C           -3.45904617458811       -1.40911170962689       -0.70753065930640
H           -2.46476916069160       -3.11772869900601        0.11411458803191
C           -3.57948588958593       -0.02583377766617       -0.73077670066480
C           -4.07256404658688       -2.16117317423205       -1.69934537057711
C           -4.30431477314296        0.59799115055947       -1.72971603912250
H           -3.09385280408734        0.56257537931187        0.03298291913345
C           -4.80367252684429       -1.53696138696551       -2.69487892385135
H           -3.96708816300776       -3.23584959752441       -1.69458880301203
C           -4.92212362907853       -0.15741796794883       -2.71190437138901
H           -4.38829802364051        1.67563458873581       -1.73696113127193
H           -5.27758186807576       -2.12933419697604       -3.46365998749838
H           -5.49123787669620        0.32791061714250       -3.49137059000721
C           -3.47017391151570       -2.05980599216169        1.71279593478940
C           -2.65988544403375       -2.60408557288980        2.78167331051059
H           -3.74888270098559       -1.02853320124543        1.94777823378749
H           -4.38030736257524       -2.65120190676631        1.58800615603830
C           -1.91976830743266       -3.03282901730363        3.61818203604790
H           -1.29247341850343       -3.42160163775168        4.36330952567863
Cl           1.27086043741235       -3.02185967309517        1.47889225803322
Cl          -0.33672710740775       -3.35445182509999       -1.14425801421363
O            0.74728811045700       -0.89387594985080       -0.97052931029184
O            0.60347807116464       -0.49875265892744        1.49796749807736
C            1.87584792315704        1.02155196948493       -0.20508754191125
C            0.56725553076491        1.48105933803595        0.30629420928292
C           -1.07525560560071        1.01869137155368        1.93460018827681
C            3.03608141687523       -0.77771184795176       -1.22184613652483
C            4.25473406382492       -0.11675626410702       -1.09528507858954
C            3.04079400879828        1.72340943848633       -0.01406664353445
C            4.28165104323690        1.17655694987484       -0.49403664286326
C           -0.07889685763252        2.62180009573847       -0.10653263788453
C           -1.29843869486647        3.00340626262818        0.54460016978348
C           -1.77573529139734        2.18366850538034        1.60886140503947
C            5.50427076452104        1.83854621121708       -0.38220495392389
C           -2.03236186798072        4.13962942488286        0.19285512977142
C           -2.96396126014726        2.54078743268185        2.28008552281280
H           -1.40440839305577        0.31396595017602        2.67935144840867
N            1.89631378141846       -0.19426902001667       -0.81244939420964
N            0.03505034948654        0.68975740574822        1.27388708525917
H            2.93504177105956       -1.76391671962234       -1.64070544639854
C            5.46179871720353       -0.69981936022620       -1.53921815762258
C            6.67241079736783        1.24994236166427       -0.83490301400106
C            6.64808044465147       -0.02057503078449       -1.40637880269024
H            5.42944939704561       -1.68311454531712       -1.98100756930208
H            5.54864927252178        2.82182228311920        0.05738031629529
H            7.60845476495110        1.77846565744145       -0.73999291482963
H            7.56816015003796       -0.47070831104640       -1.74744305564385
C           -3.19727151547879        4.46438315017251        0.86333929075016
C           -3.66061910006386        3.66509643749745        1.90586691605835
H           -3.31489237515479        1.91172953525061        3.08369512028485
H           -1.69020032884571        4.77425523547576       -0.60843635201105
H           -3.75108333323072        5.34516889668786        0.57628833300922
H           -4.57185076274938        3.93084446942458        2.42008335216621
C            3.05287935540563        3.02299131075193        0.72988917620051
H            3.32314724225075        3.84355803617531        0.06561753867577
H            2.08380100188416        3.23791060525097        1.16922951936816
H            3.79119878724891        2.97967523026930        1.52896596779494
C            0.45219943677745        3.43733028238647       -1.24349443200391
H           -0.31055685957968        3.53049291282313       -2.01548550516992
H            0.71939176314017        4.43995655501477       -0.91079594195941
H            1.32874121822712        2.96997726360638       -1.68208875420596
