63
 energy: -105.885232872748 gnorm: 0.000919944734 xtb: 6.5.1 (b24c23e)
Si           0.08103698342729        1.84947590619660        0.48563306750100
O            1.33396209153134        1.49932698669797       -0.46953182843253
C            2.70223908968175        1.81385874121793       -0.43746406254981
C            3.48342610355477        0.55864529926817       -0.74016921499684
H            2.96735499290041        2.20220914173950        0.55433209207223
C            2.95017379494759       -0.40037216152736       -1.59178641923638
C            4.74126750889084        0.35529041743323       -0.18982745894694
C            3.66458964078627       -1.54627029931440       -1.88902283526327
H            1.96655580450279       -0.24050029691692       -2.00671458350117
C            5.45749105671898       -0.78944473377512       -0.49286365311748
H            5.15713685052793        1.09598708770008        0.47818751284636
C            4.92124801739446       -1.74170724945481       -1.34269817733310
H            3.24076754155694       -2.28956709790377       -2.54849509237505
H            6.43628703309518       -0.93988838536924       -0.06141901144284
H            5.48010998895858       -2.63566531134758       -1.57668794275900
C            2.99855711618458        2.89740634749169       -1.49346256210044
C            2.30742976014017        4.12430481319580       -1.16012584181337
H            4.07678976899386        3.07111076614067       -1.53316682883079
H            2.65682036833164        2.53720629229528       -2.46723448575622
C            1.70186659743565        5.10458942450718       -0.83794067148885
H            1.17497850409461        5.97216835098400       -0.57449018624843
Cl           1.16530541974370        2.75169030056493        2.11153830912696
Cl          -1.26525280064005        3.39524257435046        0.37137583883514
O           -0.85306923552846        0.96637568337929       -0.88569752240613
O           -0.37769528382960        0.53501709245105        1.53426461120461
C           -2.07419994964550       -0.79049651888656       -0.01326976869047
C           -0.74862160086870       -1.38876879880256        0.25610005456242
C            1.27348810069126       -1.08461525503476        1.45583512874443
C           -3.15563014340147        1.10477627302472       -0.91166159858962
C           -4.41319413510724        0.56183089957321       -0.63358991527709
C           -3.26826299362639       -1.37912405299039        0.33004843367588
C           -4.49382270107312       -0.71200714151558       -0.00122087629122
C           -0.29207843622041       -2.55071418395220       -0.31198127490593
C            1.01508620455421       -3.04042380465925        0.03930538640362
C            1.79492374738177       -2.27426496035371        0.95559261987478
C           -5.75622382082001       -1.24964289626080        0.26662256888731
C            1.55307791968324       -4.22006309454547       -0.47303931120844
C            3.08088378825130       -2.72685453514354        1.32029950121709
H            1.81721582951415       -0.42569459409169        2.11028024696412
N           -2.04355124264763        0.43075919023513       -0.61193097398935
N            0.03769784435048       -0.68615102956455        1.11264262722719
H           -3.01828142680778        2.07547720506979       -1.35587736847322
C           -5.59914300828491        1.25196464739610       -0.95785452676998
C           -6.90393938622018       -0.55651556124609       -0.06885513238256
C           -6.82344103197798        0.69522184775893       -0.67599946909855
H           -5.52275065330235        2.22073013079820       -1.42559979945012
H           -5.84164494942208       -2.21615996266585        0.73623855648070
H           -7.87006526626541       -0.98794565838955        0.14409648832219
H           -7.72903463114773        1.22708203121424       -0.92571982092048
C            2.81663684356484       -4.64459736694676       -0.09782183851483
C            3.57635423129125       -3.89617238080978        0.79745526257358
H            3.66194626208203       -2.13418560987624        2.00871358583058
H            0.98266498196113       -4.81808489621157       -1.16552302007173
H            3.21383784922674       -5.56254197494080       -0.50339556533034
H            4.56003279490783       -4.23868665014915        1.08114081721172
C           -3.30300569873014       -2.67864293331331        1.07226301434708
H           -3.74682167471276       -3.46242088208053        0.45891668728162
H           -2.30452503337031       -2.98959528915455        1.36425476055809
H           -3.90832228221237       -2.57172296815416        1.97113523627066
C           -1.11366979066158       -3.28949959978207       -1.32235956993867
H           -0.53403805621351       -3.43001714411590       -2.23352097812386
H           -1.39446777039575       -4.27334799061835       -0.94725484359909
H           -2.01685642772018       -2.74072818082327       -1.57114237779443
