63
 energy: -105.885931727706 gnorm: 0.000720548933 xtb: 6.5.1 (b24c23e)
Si           0.03168654910515       -1.91548592878992        0.46859659167425
O           -1.45853523922869       -1.49790097316019        0.97199150949479
C           -2.73289357815377       -1.95243880203919        0.57844150966336
C           -3.08445654696544       -1.43447912922058       -0.79244219946837
H           -2.73328833610447       -3.04832629914567        0.57536990892171
C           -2.83560090657255       -0.10513438351802       -1.10648241562085
C           -3.64861846986473       -2.26525741293886       -1.74904661698018
C           -3.13806981425146        0.38595736491294       -2.36252800907325
H           -2.39241364288768        0.54298794696003       -0.36436364960889
C           -3.95711648743937       -1.77153384558429       -3.00386239079696
H           -3.82850911793613       -3.30348835143684       -1.51456990164277
C           -3.70140512161505       -0.44681438030211       -3.31401078837209
H           -2.93417204338509        1.42109956273804       -2.59840714732393
H           -4.38968373430888       -2.42623449001918       -3.74574691161667
H           -3.93543445457534       -0.06524425397862       -4.29709971021144
C           -3.74911867502331       -1.43339925426054        1.61402063057542
C           -3.36676548075558       -1.82161892669672        2.95442959687097
H           -4.73419320267170       -1.84016977519902        1.37317282433287
H           -3.79340554480915       -0.34222737794663        1.55205526551796
C           -3.00502512826566       -2.13484333349401        4.05105840322304
H           -2.70584529073082       -2.42046006854916        5.01500165204488
Cl           1.37161747971901       -3.10399000750439        1.45763914184224
Cl          -0.55400691422406       -3.39952512623153       -0.95111842372400
O            0.55454736049068       -0.93956825108184       -0.86391572756407
O            0.67296738560474       -0.59504727987319        1.61836623540468
C            1.74092680425030        0.97342703558218       -0.18257425311849
C            0.48943713123576        1.40654455376872        0.47513659603228
C           -0.98819809818409        0.87987021683243        2.23799971326129
C            2.79713037596849       -0.78107214768367       -1.37532910265359
C            4.01498001083264       -0.10623017210686       -1.36973042034334
C            2.91208777053398        1.68639488126336       -0.10525932001735
C            4.09632253111343        1.16997655766708       -0.73781321466085
C           -0.21333895132644        2.54127524270960        0.14702644905401
C           -1.37788017035879        2.88361408669437        0.91264740588002
C           -1.74458212018815        2.02848085250117        1.99282887577294
C            5.31617886489667        1.84614312269167       -0.74689683703848
C           -2.16697931094415        4.00679132021812        0.65013570585854
C           -2.88597666752827        2.33248043964046        2.76402372892682
H           -1.24687382670123        0.15130001999223        2.98757016233377
N            1.70570741090975       -0.22598370087507       -0.82137476135006
N            0.06865276276773        0.59068670870487        1.47726537404227
H            2.65960400758027       -1.75667339366206       -1.80844823918300
C            5.16932866587856       -0.65945561630993       -1.96532313462534
C            6.43127692789206        1.28690190460176       -1.34683868968831
C            6.35569607349654        0.03255889577689       -1.94846061026564
H            5.09755225404523       -1.63042840208090       -2.42915635287723
H            5.39966901670652        2.81734903093357       -0.28666999377528
H            7.36611145495312        1.82592121250325       -1.34391425107773
H            7.23562139308236       -0.39512996517829       -2.40475750608991
C           -3.28109305408803        4.28301794487550        1.42122274045853
C           -3.63941068973419        3.44509425179281        2.47515847738910
H           -3.15438316479220        1.67024735986018        3.57270323608152
H           -1.90841321003355        4.66930352891362       -0.15990533558690
H           -3.87871367826815        5.15473533155972        1.20279205660486
H           -4.51420751646889        3.67199887491777        3.06560302449625
C            2.99316529070781        2.96609342133969        0.66820548983186
H            3.18666552782173        3.80676780721911        0.00229225155835
H            2.07423018859780        3.15958252447151        1.21269655122041
H            3.81164726380800        2.90851516574604        1.38405958396058
C            0.19172085077450        3.38693041912953       -1.01956388593481
H           -0.64364658321326        3.48334796633235       -1.71180160735376
H            0.47494443454769        4.38719847107062       -0.69304956969574
H            1.02812098426553        2.94325802494908       -1.55116571499453
