57
 energy: -107.978609103648 gnorm: 0.000836987913 xtb: 6.5.1 (b24c23e)
Si           0.26414519653998       -1.62627792626472        0.52160142528637
O           -0.90614820927333       -1.82041888881209       -0.56372029487390
C           -2.15698717990887       -2.46585237555171       -0.50640067293541
C           -3.23958320567808       -1.44302210179192       -0.74655855496650
H           -2.28805047396028       -2.92643715747788        0.48058478498509
C           -2.98925012213754       -0.34473949616399       -1.55938073185703
C           -4.48972407783208       -1.58536799983796       -0.16032077874535
C           -3.97420739848195        0.60138201217212       -1.77982887430204
H           -2.01106956103254       -0.23470653646521       -2.00350121045977
C           -5.47680751922674       -0.64294143663029       -0.38865819310297
H           -4.68361487639429       -2.43127900161103        0.48275589876002
C           -5.22116668773066        0.45212377691134       -1.19714945679012
H           -3.76808306389258        1.45774939959092       -2.40600415323959
H           -6.44642811665447       -0.75897953118685        0.07325710787392
H           -5.99018522451002        1.19096114623120       -1.36907275077945
C           -2.18975171752534       -3.56373667992335       -1.58552798997230
C           -1.18770057471802       -4.56905401633260       -1.30256108224247
H           -1.98478327867690       -3.10648310884247       -2.55688239040527
H           -3.18382758885684       -4.01735387416225       -1.60432199329743
C           -0.33643356295826       -5.36330661495220       -1.02715377864030
H            0.40828004255770       -6.06777540261379       -0.80607997488115
Cl          -0.52952107614871       -2.68992949289805        2.16473930127383
Cl           2.11594651183010       -2.49891751309557        0.64900969087396
O            0.96558085750821       -0.52927766098626       -0.95357459946281
O            0.20841864623988       -0.15469421690893        1.42805593106197
C            1.90843907792240        1.39108104322923       -0.06838729013514
C            0.52679039791086        1.82189185896345        0.18541809296132
C           -1.61019673480754        1.24892268796738        1.01162312379198
C            3.25372646546985       -0.22418394081207       -1.10951870814024
C            4.43161147311122        0.48028275678456       -0.82059715641418
C            3.00537435479479        2.15088699453748        0.22911080681692
C            4.31179590737629        1.70608374900733       -0.10656818172103
C            0.03728923318347        2.99882380824768       -0.29778303517716
C           -1.33768698963604        3.34918166765117       -0.14543966840140
C           -2.18654222426085        2.41925372557808        0.52857922331539
H            2.87400329633127        3.09026946449259        0.74059385180209
H            0.69421547726890        3.65753587852770       -0.84225431031343
N            2.04289572802407        0.19679510092871       -0.71417442389322
N           -0.28650885791352        0.97577639582835        0.87567409843120
F            3.28065897935139       -1.31886648199104       -1.85849176293746
C            5.70299540969868        0.01651197627372       -1.20578544853021
C            5.47010274211947        2.41962811180891        0.21029219290768
C            6.71030126068971        1.94113133345103       -0.16743143109303
H            7.59925575202851        2.49757914361998        0.08668678120704
C            6.82294232018458        0.74589827527765       -0.87547628003325
H            7.79864050204811        0.38778971445696       -1.16563592725863
H            5.38297726690059        3.34704037159362        0.75528034533102
F           -2.31951848839522        0.33467741151018        1.66858587391150
C           -1.88443512129941        4.52694257590596       -0.64473339855439
C           -3.55999459190330        2.71243909012367        0.67625396143061
C           -3.23496038683393        4.79568898244709       -0.48937810844191
H           -3.64791358495587        5.71218062137210       -0.88091515351828
C           -4.06231960967312        3.88744357091116        0.16907809821074
H           -1.24410013604912        5.22931166844546       -1.15655935738802
H           -5.11235768463312        4.11023741077360        0.28223546479313
H            5.77926006050576       -0.91274379130154       -1.74703034518179
H           -4.19318003362651        2.00305652200092        1.18372241305910
