57
 energy: -107.983135971440 gnorm: 0.000569790871 xtb: 6.5.1 (b24c23e)
Si          -0.15858167473329        1.90834461153890        1.21330667624698
O            0.96039823162038        2.36912038611410        0.17961242367994
C            1.17441984756002        2.30983163757721       -1.22551330243744
C            2.17196483779086        1.21843180327152       -1.51596575357893
H            0.22482380423991        2.08248938350671       -1.71293512137634
C            3.42811937089152        1.23792876341277       -0.92166509890940
C            1.83516360203776        0.16630047276598       -2.35615184694081
C            4.34096223667809        0.23295081669674       -1.18670505386573
H            3.68397272603941        2.03460561079517       -0.23937450180054
C            2.74581316652073       -0.84409947650199       -2.61178249590779
H            0.85166476460470        0.14150193689428       -2.79980406071985
C            4.00336417185478       -0.80782130040767       -2.03522257910622
H            5.31851404705604        0.26040031730078       -0.72907132507803
H            2.47393705475704       -1.66143771912684       -3.26350020859372
H            4.71489746644643       -1.59438679756150       -2.23740200938041
C            1.67151911398435        3.68882234382880       -1.68261700343645
C            0.63848153848080        4.68301042212948       -1.48134865365274
H            1.93800378783432        3.63435769622311       -2.74115303141479
H            2.55718178487713        3.96553197641020       -1.10613430283539
C           -0.24348732661963        5.46547953649657       -1.28000177430761
H           -1.00563366159443        6.16703534953222       -1.11593047965041
Cl           0.50795263251474        2.76056882315469        2.90841520420354
Cl          -2.07480807507404        2.44647182873153        1.01057679299024
O           -0.95174151707484        0.53352936789033       -0.93823236555348
O           -0.18219013673353        0.27332621591565        1.60905975662602
C           -1.50356265328288       -1.49171823557935       -0.01600714680338
C           -0.07493961142863       -1.66920284332199        0.26381164368121
C            1.90086404864272       -0.79546115578773        1.24736031296866
C           -3.14068530629392       -0.10588219681450       -0.93715741111079
C           -4.16942088641446       -1.01940038691314       -0.65785398414738
C           -2.44428171994194       -2.44917542955829        0.26832693997688
C           -3.80634331240404       -2.24467885539324       -0.03474368660730
C            0.62568107237465       -2.74009277374825       -0.19588998216874
C            2.02395229826972       -2.88809762535544        0.05510224669407
C            2.66881530454189       -1.86247054689369        0.81559110035390
H           -2.13102369000244       -3.36208618358405        0.74863160357834
H            0.11662141980761       -3.48151580212015       -0.79038782113754
N           -1.85664343071125       -0.31645015430886       -0.63234912637941
N            0.55545110870871       -0.70881960291528        1.00716209953450
F           -3.40265998348263        1.02960302333102       -1.58698676089459
C           -5.51517610444577       -0.76658321011314       -0.97746396023843
C           -4.81209304702469       -3.18356166969630        0.24673053824401
C           -6.12197643673726       -2.91474232632788       -0.07354426283764
H           -6.88942911832022       -3.64067264107283        0.14821240583103
C           -6.47315709631979       -1.70743458039228       -0.68396747957210
H           -7.50688316183295       -1.51399927566410       -0.92553855278278
H           -4.53870415406836       -4.11464361003970        0.71922129269752
F            2.41831689742117        0.21529531712764        1.95388221327081
C            2.77173439865034       -3.96147010572034       -0.40990652988200
C            4.05248648128357       -1.97729926170358        1.09263358916079
C            4.12738731411166       -4.05096138712307       -0.13189256228249
H            4.69735665377968       -4.89117047752213       -0.49640104908309
C            4.75450907116043       -3.05945337998616        0.62190667908568
H            2.28360256243951       -4.73078821288027       -0.98941027461507
H            5.80929524943932       -3.14421508107900        0.83725260765479
H           -5.77555142382248        0.16883868496328       -1.44689491582992
H            4.53188846194373       -1.20841602039799        1.67658834843754
