57
 energy: -107.983243300750 gnorm: 0.000379814275 xtb: 6.5.1 (b24c23e)
Si           0.77321920699443       -1.31455750146312       -0.32070631672087
O            1.78021021389204       -0.11398463306266        0.11637569076893
C            2.98963666843936       -0.19020925437563        0.83985148171267
C            4.03835048116028       -0.95410752557987        0.07495315665016
H            2.79436662127320       -0.68986008284013        1.79596365534527
C            4.15966579204065       -0.77912900248160       -1.29670401388112
C            4.88810428210032       -1.83335264387804        0.73049041103290
C            5.11652142713860       -1.48167180617828       -2.00635108562091
H            3.48882647088900       -0.10566573283935       -1.80875129975575
C            5.84975021442771       -2.52925089644145        0.02024682205452
H            4.78425468860813       -1.98243734189620        1.79511598155060
C            5.96509902152803       -2.35537529784483       -1.34855375222862
H            5.19676504231890       -1.34823316596545       -3.07492483943654
H            6.50417823500927       -3.21665032481656        0.53576730621990
H            6.71101921225771       -2.90591663807712       -1.90284774059315
C            3.46286161451095        1.25219987616357        1.09676955229209
C            2.48158566741777        1.99247572318367        1.85881382432881
H            3.62721310040367        1.74456477533119        0.13481197952653
H            4.40933824736920        1.21865867919135        1.64163764517936
C            1.63079184356927        2.57330649008528        2.46781533713103
H            0.90828129591966        3.09811000447135        3.01757574990859
Cl           0.91140843224400       -2.40374046646666       -2.03188373534287
Cl           1.42727617183795       -2.79814334955173        1.02524422439128
O           -0.69658665285087       -1.23314988122772        0.57409103054876
O           -0.02655244532762        0.00783485936844       -1.49119610874685
C           -2.35615032008124        0.27281313452777       -0.21803034118392
C           -1.38888726929385        1.37361724562765       -0.20765422637909
C            0.63811452231912        2.17563866925343       -1.06266722577046
C           -2.76080025136342       -2.05221335541214       -0.09947185078461
C           -4.09832178834996       -1.91115156458004       -0.45284828739266
C           -3.66229472168429        0.48583958383380       -0.55348874839064
C           -4.59095371442697       -0.58765719279937       -0.66871297170848
C           -1.62928762814944        2.57780431541520        0.40358387550178
C           -0.69484612672456        3.64082476686795        0.31619761325217
C            0.48076722661395        3.43108451806711       -0.45792990672146
H           -3.98761600284676        1.48886840808921       -0.77731641006796
H           -2.53334849998153        2.70582921909695        0.97590530181073
N           -1.92365223309488       -0.99219158972890        0.06016482682261
N           -0.25143892689281        1.18519972357706       -0.92993831761852
F           -2.22155137171191       -3.24338847059901        0.13873130965103
C           -4.97470691551097       -3.01036910522962       -0.59744684369675
C           -5.92947061067529       -0.40861486482282       -1.00770026592269
C           -6.77285903719823       -1.49885023485745       -1.13478262145013
H           -7.80864549210240       -1.34923205455764       -1.39609115002889
C           -6.28924734691817       -2.79202414867901       -0.93191577417724
H           -6.95820302182142       -3.63209996213265       -1.04017513614059
H           -6.30138155843747        0.59140511126974       -1.17147426445819
F            1.68918730586984        1.91751587726767       -1.83428613864057
C           -0.87519212134946        4.87515258487868        0.94667441583026
C            1.42984055898685        4.45978758915643       -0.58350632416793
C            0.07538977665402        5.87039167027633        0.81930697947728
H           -0.07123725859643        6.81758234243008        1.31543757392314
C            1.22123736391904        5.66225157342361        0.05562457048531
H           -1.76444567640166        5.03891993788795        1.53633559963606
H            1.95291333265364        6.45000527340447       -0.03543890261898
H           -4.59355918422101       -4.00632383221879       -0.43915453362955
H            2.31480013764489        4.29174096845372       -1.17605378175824
