57
 energy: -107.973406382397 gnorm: 0.000425721693 xtb: 6.5.1 (b24c23e)
Si           0.78974844713635       -0.22952649157700        0.42040895579436
O            2.33585009408077       -0.62568923274794        0.62278666836662
C            3.12243069052183       -1.75510211855926        0.33906638186830
C            4.38505902357414       -1.34182136893556       -0.37217946286654
H            2.55700658321867       -2.45513200276330       -0.28690669991817
C            4.88702573752041       -0.05473792528989       -0.24343940486700
C            5.07355602439248       -2.27005205144531       -1.14347516787407
C            6.06186022235913        0.30040713980923       -0.88310116917521
H            4.34374816007462        0.66533641751925        0.34871241183136
C            6.25131932768332       -1.91509276553571       -1.77529759231016
H            4.68000112077292       -3.27113949817902       -1.25160506426486
C            6.74776997597716       -0.62837274803972       -1.64647927176799
H            6.44282229986397        1.30619192344629       -0.78314230534656
H            6.78045549655758       -2.64263136966738       -2.37358597389675
H            7.66577593277554       -0.35099149942998       -2.14375993629259
C            3.46216303148729       -2.44608815395276        1.67595146026395
C            2.25206079779530       -2.93037052041102        2.30376536083132
H            3.94994976876252       -1.71742231525915        2.32874711960219
H            4.14869615800915       -3.27491157784000        1.48730088513262
C            1.21265226859180       -3.28977894816308        2.77476672632335
H            0.30914496203674       -3.61717004547999        3.19396694580221
Cl           1.18259064341929        1.47458575667407        1.65510278764967
Cl           0.25047969774066       -2.00354909394928       -0.73889594715650
O            0.23858112792576        0.69295582433773       -0.94283874669975
O           -0.71771927940179       -0.31246811187772        1.30962226745533
C           -1.80669126968795        1.62271671308956       -0.27608993907941
C           -2.38166689964404        0.26246741589437       -0.22904769200349
C           -2.34443387495418       -1.88587971091109        0.74611379429267
C            0.05930905264032        3.00008297767526       -0.71164752832423
C           -0.63449639026243        4.16301110499509       -0.37695697779124
C           -2.55686846428009        2.71661755950442        0.03661359537048
C           -1.99950334159123        4.02859254655067        0.01350143936715
C           -3.46769061691601       -0.08114273041608       -0.97685398573939
C           -4.02364470392964       -1.39280260974017       -0.91529543285888
C           -3.43479427124027       -2.32162240445682       -0.00724990488391
H           -3.58224497523531        2.58301042142897        0.34116946410825
H           -3.89492713241544        0.64373833943272       -1.65062154312102
N           -0.51590935467128        1.77940816698807       -0.68161716044626
N           -1.84124170221352       -0.63852041612967        0.63891345386539
F            1.30947319606923        3.03245413348807       -1.15106252072857
C           -0.04006376166840        5.44176895528183       -0.40406797828539
C           -2.72064593449584        5.16904387257457        0.35823518368566
C           -2.11904843698787        6.41532816295856        0.32396463621656
H           -2.68617631592657        7.29209338014995        0.59525371505434
C           -0.78366116921445        6.54465711474909       -0.05513273651939
H           -0.32837966451957        7.52305553842085       -0.07313257353761
H           -3.75339329657442        5.06962660476459        0.65565118318104
F           -1.77846851143833       -2.65641034305708        1.66569594063343
C           -5.10510029987856       -1.79959420962735       -1.69274247571715
C           -3.95705496034674       -3.62816750543657        0.08986973188708
C           -5.60117426446846       -3.08754152929814       -1.58450143209450
H           -6.43744559040857       -3.39312209905535       -2.19377017267018
C           -5.02568984858186       -3.99346354664042       -0.69486595716472
H           -5.55026195762313       -1.09939582185646       -2.38305822691082
H           -5.42304816827278       -4.99440844191242       -0.62314017434680
H            0.99478145086903        5.53080803686895       -0.69204938435088
H           -3.50086983501958       -4.32485489896828        0.77447243042553
