57
 energy: -107.980493046059 gnorm: 0.000566777482 xtb: 6.5.1 (b24c23e)
Si           1.12659245626881       -0.62128546009809        1.32777421737113
O            1.33264313569314       -1.73477342863802        0.20672786200681
C            1.96916081674951       -1.75185177915575       -1.06384778699439
C            3.45569603773085       -1.57841574817464       -0.90700879936453
H            1.55522638497312       -0.93096030028719       -1.65502586598218
C            4.13617069226491       -2.26228514327674        0.09211650805681
C            4.15484479079953       -0.72303662693976       -1.74713237708783
C            5.50005773107635       -2.09290642246887        0.24807509652268
H            3.59012991018074       -2.91279794311315        0.75953918090052
C            5.52014384223381       -0.55992367289746       -1.59400325351923
H            3.62368864796689       -0.17718160092552       -2.51269162495351
C            6.19472555243678       -1.24429491298020       -0.59701556327500
H            6.01998732570015       -2.62270682023720        1.03235766117123
H            6.05712528020981        0.11077990024521       -2.24843866953870
H            7.25932368385323       -1.11045085891263       -0.47406292813217
C            1.62305675795485       -3.09632205605404       -1.72168159619457
C            0.21139317169710       -3.16456671726383       -2.03490163257394
H            1.88534298017249       -3.90436703558012       -1.03420308833891
H            2.20987145484248       -3.20369324781032       -2.63756296591701
C           -0.95943474693567       -3.17625651061067       -2.28119016332620
H           -1.98375067681776       -3.21424841829773       -2.50392773271559
Cl           2.28064494409274        1.01489525098611        1.41939239979463
Cl           1.40161739305552       -1.61953013452067        3.05687547337822
O            0.47073479447323        0.69616684454567       -0.91690965106500
O           -0.46497508994162       -0.11818178227768        1.48031736995837
C           -1.38027418134005        1.84364272008495       -0.19540239378455
C           -2.05701913115981        0.54371884642495       -0.13825936885335
C           -1.99586798563925       -1.70710793030192        0.61851252470968
C            0.59642213879880        2.96406351306288       -0.72961521628889
C            0.04695887138670        4.22032390579675       -0.42853440094301
C           -2.00066381100648        3.03212250207699        0.09566570296466
C           -1.30822312222782        4.25711553714019        0.00009783046053
C           -3.19216075344691        0.28273544762426       -0.83879638937388
C           -3.78982481227269       -1.01503770953908       -0.84105525029722
C           -3.13834329798819       -2.04294478523009       -0.08648132034920
H           -3.02890560744834        3.01870728088740        0.41943802234642
H           -3.62510658063726        1.06289906218549       -1.44408054431490
N           -0.07220542748267        1.81299317526943       -0.61480299881168
N           -1.48938988221595       -0.43568891192592        0.63113219136391
F            1.84153468066345        2.86498853215333       -1.20153474655253
C            0.77981429211488        5.41486557378632       -0.54196557461357
C           -1.88664195416457        5.50011069433993        0.30452937560355
C           -1.15005738799441        6.65559724051338        0.18956819076008
H           -1.60120769269416        7.60672686470950        0.42830822262079
C            0.18126153024468        6.61316490832568       -0.23340313704048
H            0.74297188610625        7.53076134163214       -0.31668164125272
H           -2.91474314160310        5.53085474044499        0.63159347964602
F           -1.32560206536699       -2.59511644012378        1.35782394646829
C           -4.93749769777617       -1.32303768875185       -1.56047132809532
C           -3.67980171581163       -3.35266737199928       -0.09691275740868
C           -5.45440718292015       -2.60989774938613       -1.54964855004504
H           -6.34753822012475       -2.83648210797714       -2.11045311273774
C           -4.81815349721427       -3.61429805276638       -0.81871303401505
H           -5.42421687141120       -0.54675155076448       -2.13186060003698
H           -5.22673381047982       -4.61386186539420       -0.82438210507545
H            1.80733907092474        5.37039465308262       -0.86670344717850
H           -3.17963891054822       -4.12609275063307        0.46330335994573
