57
 energy: -107.982756231763 gnorm: 0.000242005626 xtb: 6.5.1 (b24c23e)
Si          -0.13072769987652       -1.77701196317568       -1.29133974279019
O            1.06502015517713       -2.28758985282666       -0.37637927750805
C            1.44727937965367       -2.23926505938858        0.99277115021557
C            2.58575121276515       -1.26288059134116        1.13410566074611
H            0.59284500861833       -1.90506836038883        1.58289859371229
C            3.73456352571150       -1.41204953133447        0.36676168656814
C            2.48535251622249       -0.18832415935305        2.00725514505327
C            4.77837453978726       -0.51375616203066        0.49346913721297
H            3.80039031582468       -2.22350189788104       -0.34215431311136
C            3.53037841909379        0.71038017952274        2.13224435100394
H            1.58116924152161       -0.05881531444654        2.58340196919643
C            4.68159194824912        0.54425322532207        1.38177032566729
H            5.66952869435115       -0.63932728765341       -0.10354994546021
H            3.44518368068004        1.54520219086191        2.81216324628799
H            5.49789987065363        1.24366844353727        1.48310858520559
C            1.84191275750429       -3.65954191194126        1.42326616980980
C            0.67754281773426       -4.52017737007753        1.41699631007687
H            2.26986726164646       -3.61740392233687        2.42814555198910
H            2.59149230084588       -4.05343455992187        0.73295256061413
C           -0.31694870844126       -5.18414720927260        1.38557834707849
H           -1.17808367330853       -5.78226252268083        1.36719037457546
Cl           0.43792107806322       -2.47659238302414       -3.08885443227036
Cl          -2.00994679683037       -2.40193309959878       -0.99946345610209
O           -0.81839886436794       -0.57345948372114        1.01352289523526
O           -0.23680658601545       -0.12422633399502       -1.57494927747039
C           -1.59928894728078        1.42439373146893        0.21168663836005
C           -0.20068009915632        1.73135939688843       -0.11208261699601
C            1.78856387543430        1.05386175446034       -1.21803046279638
C           -3.05603331584486       -0.14062267825288        1.14839176781883
C           -4.17680724181845        0.67754719444519        0.93636707251504
C           -2.63481420443827        2.29597604281270       -0.00408781755603
C           -3.95891976521761        1.94885469614317        0.33835847947890
C            0.44552679939825        2.81328366556444        0.39617512485172
C            1.82332529220512        3.06697279287613        0.11115765429907
C            2.50399519299955        2.13679306078881       -0.73662097731084
H           -2.42864727636563        3.25012236108968       -0.46169050011693
H           -0.08771489968836        3.47957174087620        1.05504141623702
N           -1.81381543646647        0.20000595545736        0.79487604300739
N            0.46106949171664        0.86454525694984       -0.93778726696427
F           -3.18294697635117       -1.31389686786149        1.76965177889802
C           -5.47886383914411        0.28430988744202        1.29415516344049
C           -5.06178534556802        2.78936417944874        0.11719926997404
C           -6.32668335031756        2.38270026265589        0.47140171909054
H           -7.16990112958735        3.03290284228059        0.29434775564064
C           -6.53482566059222        1.13161192333714        1.05896489094067
H           -7.53529328768441        0.82992983864769        1.32818105996016
H           -4.89908107243829        3.75457093519766       -0.33759024092261
F            2.33842834561296        0.12805111626748       -2.01188512733203
C            2.51768381792256        4.15320823670344        0.62501833652509
C            3.86673704891250        2.35959603442734       -1.04722835782769
C            3.85533710454770        4.34843181285922        0.31318713443250
H            4.38346143171437        5.19791264022581        0.71704090579562
C            4.51580003961376        3.45181702743161       -0.52504143911114
H            2.00278173129764        4.84993981990489        1.26967581081918
H            5.55504913492204        3.61830810405966       -0.76656125851056
H           -5.62827251700456       -0.68427018316007        1.74431241017634
H            4.37363566340675        1.66244035570523       -1.69432598235617
