57
 energy: -107.979276127911 gnorm: 0.000665042436 xtb: 6.5.1 (b24c23e)
Si           0.26202875102417       -1.75962670614792        0.37429807448980
O           -1.29839627388010       -1.30783771205481        0.32043973203303
C           -2.46775163950529       -2.04233267335524        0.05584297117135
C           -3.41673372374367       -1.22895857970941       -0.79242986373607
H           -2.19848511510677       -2.96190902606082       -0.48194818144804
C           -3.11330776580279        0.06675017417027       -1.18271007522968
C           -4.62804196594581       -1.78202913271825       -1.19556164537231
C           -4.01411447596613        0.81435283783318       -1.92109459423265
H           -2.15649677007741        0.48745975922758       -0.91962036700466
C           -5.52567490489332       -1.03947985693065       -1.93942491833625
H           -4.86402588707382       -2.80415825572927       -0.93713968487564
C           -5.22796660302408        0.26670365866434       -2.29360346862293
H           -3.76169595347701        1.82643171278158       -2.20447516121774
H           -6.46229948425800       -1.48193443056400       -2.24550420843195
H           -5.93434683119840        0.84791913710972       -2.86759089314251
C           -3.12098100174370       -2.42225065291233        1.40136188653822
C           -2.29148179390761       -3.36874799951314        2.11540978911308
H           -4.10619927067454       -2.85657614957937        1.22179431917315
H           -3.23680628264023       -1.51604419495159        2.00144055642728
C           -1.56689117981252       -4.14492096464364        2.66616179485084
H           -0.93515582020035       -4.81872554902288        3.16252657961446
Cl           1.32606992420865       -2.64096897773849        1.86540800996839
Cl           0.15653126565997       -3.42692185111849       -0.90781559861880
O            1.10564283257657       -0.88839013965730       -0.85512023911776
O            0.52205096599477       -0.17778843185195        1.47888741199145
C            1.92746652097651        1.25481018704449       -0.26836501508956
C            0.56901947416045        1.67550754439192        0.09086484361357
C           -1.26308461705397        1.29153534211037        1.50080729875041
C            3.39898474695018       -0.51016758919923       -0.81538960284402
C            4.52030567553827        0.31049874093330       -0.74794628688330
C            2.97947939885879        2.12091021212948       -0.20264858405764
C            4.31500171265242        1.69283279282118       -0.45219875200004
C           -0.02980613268478        2.79910362701166       -0.41688984592438
C           -1.32646248174625        3.19115633434945        0.00828341888985
C           -1.95976613198917        2.40937915638176        1.01598887948468
H            2.79856587659198        3.14392700970624        0.08500411822640
H            0.48309943825572        3.37477561008110       -1.16956791879824
N            2.13617111186596       -0.04580469245364       -0.62644389848242
N           -0.05999480303540        0.92568206338573        1.03757717489122
F            3.49351706506712       -1.80276890209233       -1.10633974385405
C            5.83288051188783       -0.16603761792764       -0.96409818990727
C            5.41484745124540        2.54455523720826       -0.39245952574589
C            6.69128903509106        2.05853699969484       -0.61682918464234
H            7.53643508284869        2.72719479213722       -0.57014261004173
C            6.89206911932997        0.70658751598039       -0.89817356355743
H            7.89407037961046        0.34214673073878       -1.06563925733543
H            5.25991004033699        3.58888079372413       -0.16760774476898
F           -1.77369391062910        0.53691467484647        2.46783768907641
C           -2.00362755439565        4.29560841416352       -0.51380839303073
C           -3.24350990523912        2.75874293867483        1.46942671580399
C           -3.26853830479421        4.61897484653957       -0.05831513487840
H           -3.78424113534267        5.47195449880217       -0.47190639584698
C           -3.88314055603786        3.85305839425031        0.92886242430881
H           -1.52787381285318        4.88954684491748       -1.27909899877630
H           -4.87075962027082        4.11791241007307        1.27342782776150
H            5.97959334574815       -1.21205233542411       -1.17989717732611
H           -3.71455701746944        2.15849942946998        2.23121720699811
