57
 energy: -107.977733849810 gnorm: 0.000377159406 xtb: 6.5.1 (b24c23e)
Si          -0.91068679957358       -0.63396493752606        0.62759508515159
O           -1.81257196589812        0.04537038619971       -0.52326397116052
C           -3.17927253185600        0.39385204643347       -0.50664865697146
C           -4.06405987987163       -0.82496593279400       -0.48483099927030
H           -3.37905073382472        1.00685669088159        0.38122998149119
C           -3.66968159494218       -1.98324989702297       -1.13954804092779
C           -5.28307026986545       -0.79558604966338        0.17791513717047
C           -4.48114262599323       -3.10343073437838       -1.12358813322605
H           -2.71546191627540       -2.00659872727164       -1.64455503328431
C           -6.09711628560001       -1.91375509973789        0.18590682077082
H           -5.58592297919461        0.10086252336507        0.69900046233407
C           -5.69735638963655       -3.06961874434570       -0.46349625786015
H           -4.16136617322520       -4.00420966543409       -1.62634466616900
H           -7.04192162763475       -1.88591971230492        0.70853744006403
H           -6.33060360041593       -3.94457201213645       -0.44948110163961
C           -3.44065125540334        1.22309099594172       -1.77727919289673
C           -2.61413787866892        2.41041759410975       -1.80152681024718
H           -4.49672245294298        1.50185259827561       -1.80915381153832
H           -3.20682886686514        0.60547927938493       -2.64797862851995
C           -1.90668164993710        3.37547749733142       -1.80107983133609
H           -1.29744346318728        4.22944907501164       -1.81843778688342
Cl          -0.42929211940281       -2.60611446271439        0.99012439297022
Cl          -2.25489237067613       -0.51866558349131        2.26389197396441
O            0.35964562696535       -0.64504099023083       -0.82785676744458
O            0.18944076819645        0.41268698721686        1.44840468812892
C            2.46740368886250       -0.12643691474632       -0.00412448966052
C            1.97175533121040        1.24662905431706        0.14973610200854
C            0.21162416451178        2.66085339771118        0.84045178011444
C            2.00892414925141       -2.26282698182677       -0.85914527366744
C            3.29313611908255       -2.73432768788932       -0.55059655690951
C            3.74803330133249       -0.49960473630387        0.30162176298200
C            4.19862087655248       -1.82583826502648        0.06724245895425
C            2.63533353450959        2.31387013715604       -0.38116036094550
C            2.09748731973750        3.63259651313807       -0.31060578079356
C            0.82417106054718        3.79459136803588        0.31543030249563
H            4.41559986701049        0.22110472512054        0.74451311395267
H            3.56659297009631        2.15011783871305       -0.89842927396035
N            1.60195546877605       -1.01811074762780       -0.56532262486283
N            0.79217172031493        1.43492722170620        0.80296783378915
F            1.14933956820706       -3.01558839924438       -1.53415564074609
C            3.70271281223417       -4.05149814442360       -0.82653732376269
C            5.48271413323574       -2.26833372291096        0.39266872272683
C            5.86368058791868       -3.56862864110123        0.11897870545602
H            6.85714059779784       -3.90116122389357        0.37758433964735
C            4.97566449252449       -4.45392103436021       -0.48857925542294
H            5.28851282202365       -5.46583266416775       -0.69493301345793
H            6.17167127212374       -1.58263142184803        0.86146900064330
F           -0.96997788406459        2.71781330983019        1.44702957715662
C            2.73688087992882        4.74775266761174       -0.84440934602874
C            0.23902459265758        5.07917745998044        0.37770165459373
C            2.14781012262502        5.99952208681157       -0.76858651588292
H            2.65272980042405        6.85681132932982       -1.18538589608166
C            0.90348569353501        6.15681662586977       -0.15940482306449
H            3.69773504223844        4.62574049806454       -1.32073085205009
H            0.45524624946700        7.13776688276146       -0.11053565158805
H            3.00592904098426       -4.73028515656579       -1.29117494612468
H           -0.72461635992658        5.19093650067889        0.84889197781947
