57
 energy: -107.972859495866 gnorm: 0.000519019070 xtb: 6.5.1 (b24c23e)
Si           0.68789718573439       -0.59172895603891        0.10332583759874
O            2.12165817424059       -1.31627466229649       -0.00706922345490
C            3.33019484776936       -1.21729153812699        0.70507330527173
C            4.48937223625082       -1.17978122702788       -0.25604158478712
H            3.32590387839033       -0.30828814394706        1.31685224269001
C            4.41296708090007       -1.83021761556733       -1.47974069477411
C            5.65881492339429       -0.51753708794090        0.09349514018845
C            5.49186672744655       -1.81307993769967       -2.34572116241136
H            3.49802175825891       -2.33445487429710       -1.75014266112398
C            6.73944626306026       -0.50870398494377       -0.77009463156196
H            5.71846217846785       -0.00434092143818        1.04286951264288
C            6.65772992155470       -1.15586985507046       -1.99162860055495
H            5.42233794411678       -2.31572775585855       -3.29930089390908
H            7.64538863043136        0.00967277960214       -0.49141864906506
H            7.50047897502804       -1.14413946845717       -2.66736088074187
C            3.44410234667769       -2.44777261871662        1.62905175302612
C            2.34089882605880       -2.47181631879331        2.56442843905989
H            4.39602057190429       -2.40657108135939        2.16387307284665
H            3.41751463926052       -3.34985688542656        1.01188577245629
C            1.38704848411220       -2.44857717207376        3.28634557480224
H            0.56654769270848       -2.44089757371498        3.93911970291793
Cl           1.29400087520105        0.92948214245603        1.53660074069758
Cl          -0.05001017339861       -2.13209046749024       -1.19619403404518
O            0.17575636009688        0.55824376345293       -1.09010799208181
O           -0.77031872500728       -0.61679761927222        1.07866671369427
C           -1.75904061894499        1.56736806029598       -0.22930618588720
C           -2.44638492711874        0.26105547084445       -0.29196197806612
C           -2.54281342526776       -1.98245327708790        0.43458509679539
C            0.19385550830185        2.83545844039014       -0.61895540429765
C           -0.39091570000422        4.01147439811203       -0.14859857178137
C           -2.40429567577337        2.68120583490360        0.22128329683918
C           -1.74551369847474        3.94397907324829        0.29225190384136
C           -3.59761084161182        0.09467643648570       -1.00182635842107
C           -4.26483493506831       -1.16418141337519       -1.04440724572210
C           -3.70944489208653       -2.23722560278192       -0.28683558161849
H           -3.42437737995111        2.59786271615565        0.55946451648215
H           -3.99443185726758        0.92329530428308       -1.56566365119471
N           -0.47433400250840        1.66320443377823       -0.67101538916041
N           -1.94590537492624       -0.77331052774220        0.44034822847637
F            1.42789573653056        2.81232874516472       -1.10523237702795
C            0.30075915744277        5.23913217267650       -0.09228872020266
C           -2.35976984498231        5.09873636299233        0.76980930594349
C           -1.66404459648494        6.29532740738985        0.81520968819544
H           -2.14950614819008        7.18384732006944        1.18768258969564
C           -0.33977779652264        6.35882340239053        0.38552739012634
H            0.18966228232664        7.29831922746095        0.42957169465064
H           -3.38424430534124        5.05007242007975        1.10596159323497
F           -1.99441154343988       -2.89463125245715        1.22485856592134
C           -5.42455850220858       -1.38688488818795       -1.78329059698966
C           -4.34097303277990       -3.49825148701468       -0.29729400736300
C           -6.02844127952292       -2.63215750689337       -1.78109445623597
H           -6.92515810254871       -2.79435099616138       -2.35865520869916
C           -5.48433202527878       -3.67987015181574       -1.03914345285521
H           -5.84554915449054       -0.57718050381513       -2.35956762053636
H           -5.96673815985750       -4.64530375057354       -1.04934963928226
H            1.32659505569977        5.27682190188666       -0.42137584657857
H           -3.90843854231658       -4.30385169065339        0.27350462233149
