57
 energy: -107.970883031120 gnorm: 0.000912945628 xtb: 6.5.1 (b24c23e)
Si           0.65671416279619       -0.93339217412232        0.79138051522577
O            2.15595271383737       -1.16291495430041        0.18007013018707
C            3.25334585677020       -0.29994945951004        0.02025311389752
C            4.40098071971494       -1.07780822453599       -0.57596628352989
H            2.96002673180720        0.50885178796562       -0.66078637153699
C            4.62830099686929       -2.39184645873238       -0.19142060509448
C            5.26439111431232       -0.47326965851812       -1.47961424161044
C            5.70264372577154       -3.09351862644855       -0.70815116799134
H            3.94778736274760       -2.85961335523078        0.50332344354789
C            6.34206772652536       -1.17392851512065       -1.99113654650275
H            5.08870700000690        0.54935813918280       -1.78321952097760
C            6.56331425027127       -2.48549169881407       -1.60615275751428
H            5.87033124608831       -4.11723576257117       -0.40697926150589
H            7.00886745021232       -0.69627285971977       -2.69445294633105
H            7.40372739744116       -3.03262520296509       -2.00770698345776
C            3.72557395637378        0.31895078367138        1.35513447241424
C            2.83634811279089        1.34775140285720        1.84520369046806
H            4.71814590744268        0.74995856112504        1.19790663611777
H            3.79640266341959       -0.47809487440747        2.09894696010798
C            2.09992648214165        2.20493319797655        2.24141876523056
H            1.46044544909229        2.95043668671575        2.61064504772288
Cl          -0.10856775953214       -2.57612415116894       -0.15864932537079
Cl           1.08523422110380       -1.03638021151767        2.79255314495437
O           -1.12405313906813       -0.51909767008037        1.55070014442388
O            0.33459153492898        0.37752605181863       -0.31149062039984
C           -2.50233765492273        0.30405625696350       -0.11283044595925
C           -1.73033769343708        1.55254886017853       -0.05230989742822
C            0.32752049842475        2.68990662862242       -0.24086380525918
C           -2.87766389129490       -1.81682973901533        0.81511711961036
C           -3.96324671198862       -2.06933605835330       -0.03390576693813
C           -3.56309590039536        0.14445252289250       -0.96329057105318
C           -4.32020921187084       -1.05489370109318       -0.96659046401276
C           -2.37452713426788        2.74754435553756        0.09755895256183
C           -1.66854874197738        3.98580733043020        0.14180112208163
C           -0.25737635831733        3.94023290750079       -0.06445016389123
H           -3.80999287540280        0.93404435229253       -1.65406017582027
H           -3.44729249772899        2.75100678762348        0.20165157349334
N           -2.17263574414534       -0.67801967366528        0.76712848863548
N           -0.37167659884797        1.52016073544713       -0.17098096075334
F           -2.53572623820455       -2.67524285849365        1.76464392402116
C           -4.69278099045458       -3.27239914648842        0.00639062006130
C           -5.39617892374923       -1.28003986162852       -1.83061197936108
C           -6.09616193684323       -2.46863402581644       -1.77751625038488
H           -6.92277072589987       -2.63435548194904       -2.45112874996462
C           -5.74387817271312       -3.45967415379234       -0.86096929364757
H           -6.30158538739598       -4.38305717479751       -0.83439687171693
H           -5.66896082788191       -0.51374009674893       -2.53990424492340
F            1.60952960278575        2.56812530565090       -0.59217581501049
C           -2.28712639495491        5.21566193709395        0.33836732536902
C            0.48057233375607        5.14330378414769       -0.08543271684990
C           -1.54231219268512        6.38505645269186        0.32877993012118
H           -2.03139914725495        7.33369774147250        0.48496157912015
C           -0.16678464009968        6.34143981351104        0.11270558730417
H           -3.35442344807762        5.24965690272285        0.49553135250546
H            0.39998210713853        7.26005932962000        0.10220567806229
H           -4.40740381862125       -4.03325471503789        0.71479005174649
H            1.54571043345281        5.10108492893611       -0.24750656417889
