57
 energy: -107.637945154868 gnorm: 0.000828848140 xtb: 6.5.1 (b24c23e)
Si           0.41945117602382       -1.33081162608356       -0.11883412641338
O            1.66688448312150       -0.34625364069014        0.23013093525290
C            2.78390238839571       -0.54679596107790        1.06353345504007
C            3.81275466588382       -1.44867883201802        0.43122030513010
H            2.44778777056104       -0.99033187113366        2.00843058756827
C            3.92563411846013       -1.54873046150073       -0.94710017424955
C            4.67973708414874       -2.17283499813421        1.23920505399388
C            4.88715142210785       -2.36724867480417       -1.51272108288992
H            3.24698443774588       -0.99755654266532       -1.57908220840342
C            5.64580850856143       -2.98407052446067        0.67355881328583
H            4.58684664715410       -2.10749474334970        2.31377143490932
C            5.75151269552569       -3.08326836247564       -0.70393169188244
H            4.95821302984689       -2.44505115466193       -2.58750455341844
H            6.31332048792560       -3.54687686519335        1.30941116865802
H            6.50219336083945       -3.72253690709177       -1.14475627626693
C            3.39481961133851        0.84046775955223        1.34483392890531
C            2.45368042381449        1.67328998800621        2.06053249029323
H            4.30320942632428        0.71230430379505        1.93799832969626
H            3.65683432495305        1.31186104255836        0.39407173681734
C            1.63322882744756        2.31660132790821        2.64748303464386
H            0.93543555026775        2.90306400796259        3.16574621663954
Cl           0.26594995653203       -2.50903451537267       -1.77969814118052
Cl           0.87486012563301       -2.90313906700935        1.23734785488177
O           -0.95011925170101       -0.96801935447580        0.86525315242258
O           -0.17319323691953        0.03191495774313       -1.29282870683370
C           -2.35564186425975        0.74925709557307        0.07292401612860
C           -1.20835772529745        1.66107855751689       -0.01618483434223
C            0.86256794409978        2.09203187416442       -1.05751328052267
C           -3.16646272715213       -1.46656728732926        0.36872719074035
C           -4.47923988437369       -1.07312018356061        0.06936828280763
C           -3.61367560199554        1.18944276821404       -0.22135167111788
C           -4.72720713397382        0.30237383802869       -0.21551532259339
C           -1.21035061902867        2.90429747390900        0.55635787605048
C           -0.11758706578726        3.79078143483506        0.37202659112799
C            0.94738915438023        3.37094011374429       -0.47351061629835
H           -3.75992847836154        2.22105319010444       -0.49676977050435
C           -6.02540549858169        0.72196764119305       -0.49929667480215
H           -2.04355077425406        3.20061243918346        1.17219516851719
C           -0.05429411987717        5.05003004805059        0.97369930033033
C            2.03565068384072        4.23379513955637       -0.68600119085181
Cl           2.02139383660388        1.51729290847916       -2.15582877927984
N           -2.15310245561199       -0.55305996286113        0.41117308385119
N           -0.16867478952172        1.26615027354688       -0.79485571689936
Cl          -2.73450612948476       -3.07550848945940        0.72125918228257
C           -5.56082630640245       -1.97706264114991        0.04750509050923
C           -7.07096269955681       -0.18336794137858       -0.50491895948043
C           -6.83076815164426       -1.52897867071695       -0.23332823957013
H           -5.37389401548251       -3.01680327229053        0.25807695790035
H           -6.20379250165081        1.76447282679871       -0.71550366391070
H           -8.07294181958357        0.15171295184612       -0.72307187439457
H           -7.65256768143065       -2.22872238262077       -0.24353830564360
C            1.03080650794180        5.87687834321077        0.75722692204415
C            2.07115963594501        5.46606497039765       -0.07155114595246
H            2.84005441364851        3.91603464871088       -1.32910751318030
H           -0.86501919807060        5.36652443063541        1.61264206110461
H            1.07225110901567        6.84551713406679        1.23108728305736
H            2.91425992191541        6.11966544427483       -0.23474198370833
