57
 energy: -107.638268650550 gnorm: 0.000744896493 xtb: 6.5.1 (b24c23e)
Si           0.70154805329687       -1.21698448486243       -0.54272561007820
O            1.82182304200637       -0.16891254172503       -0.00053726818834
C            2.94774595498683       -0.40292883382314        0.81625138088201
C            3.99320055364966       -1.22482444052831        0.10814953515593
H            2.62246309858358       -0.92834088573246        1.72198136732373
C            4.20103483032948       -1.07332018245054       -1.25512410343208
C            4.76733324919010       -2.13200830693740        0.81858460225032
C            5.16418632278500       -1.82511848110095       -1.90348651654185
H            3.59201960243616       -0.37831721692133       -1.81300164337222
C            5.73541785321992       -2.87786528097989        0.17124896777351
H            4.59846049871906       -2.26302515642493        1.87753424721180
C            5.93526983604870       -2.72671281449376       -1.19069533831314
H            5.30957434380660       -1.70686625602425       -2.96715514448943
H            6.32905628608146       -3.58660412627632        0.72996091100257
H            6.68652579486703       -3.31533926334409       -1.69632944187426
C            3.52714713838447        0.97040004326450        1.20500413941038
C            2.56193298378017        1.74351879993529        1.95509084576274
H            4.42568303992144        0.81343279766015        1.80675834902385
H            3.80161067398066        1.51009105236245        0.29494885385977
C            1.72467902819672        2.34960497467297        2.55835103447883
H            1.01409772037430        2.89756839181803        3.10107078498617
Cl           0.74817401373681       -2.17355842462970       -2.34751529076888
Cl           1.26455325033530       -2.90391343794944        0.62679025845414
O           -0.73841085486810       -1.12575752969714        0.40695365518369
O            0.01121236468846        0.21692849225332       -1.56396008384315
C           -2.31064429754486        0.49034607954865       -0.27000988979936
C           -1.28486370863617        1.53619890428731       -0.17244079069773
C            0.76722269723523        2.33879211277410       -1.01189904186724
C           -2.84611876352838       -1.82616472651837       -0.28331611370742
C           -4.17915124413990       -1.56046934264100       -0.63051273413899
C           -3.59661849922655        0.80854578784998       -0.59879913834250
C           -4.58505406400917       -0.20072368192953       -0.77483907858869
C           -1.47557594704704        2.68841524579640        0.54116453896817
C           -0.49913814933800        3.71839030265655        0.53211177933431
C            0.65294925599627        3.53937978766899       -0.28425928446222
H           -3.85822366650138        1.84105449983156       -0.76298739838986
C           -5.90774442359818        0.08979011934185       -1.10404510224537
H           -2.37069378197504        2.80265597876225        1.13014217270960
C           -0.63197895754811        4.89315204882999        1.27664123492696
C            1.62545312952310        4.55257877788105       -0.32932875352327
Cl           2.04837560763068        2.04647029896810       -2.08344683169211
N           -1.96185610033582       -0.80918992796030       -0.06891947876847
N           -0.16262313903971        1.36825451889817       -0.91822760114660
Cl          -2.23372050236100       -3.40200785515290       -0.08071264171204
C           -5.13169716569425       -2.57940646152337       -0.83469047335268
C           -6.82503212541882       -0.92817557350802       -1.29112240335853
C           -6.42964227332915       -2.25784203109910       -1.15743879416140
H           -4.82447242790502       -3.60650841747257       -0.73001777043905
H           -6.20640188509461        1.12150793401228       -1.21235419807760
H           -7.84702291750874       -0.69303141122839       -1.54431215040307
H           -7.15178828012384       -3.04555000857910       -1.30937525602353
C            0.34336332484026        5.87020097359859        1.22450775984992
C            1.46694919863283        5.69689824259115        0.42077611884684
H            2.49519336200525        4.41823857480751       -0.95118335998712
H           -1.50727176998240        5.02468814120703        1.89502735684436
H            0.23375538065659        6.77159044746528        1.80775375928236
H            2.22201145465029        6.46708077279644        0.38533307226960
