57
 energy: -107.629694063975 gnorm: 0.000839298819 xtb: 6.5.1 (b24c23e)
Si           0.22555649651901       -1.26989428691505        0.87192605263247
O            1.49787911130592       -2.26151870706873        0.58201091341495
C            1.90905234963295       -2.87853980336640       -0.61931325251054
C            2.97766914145071       -2.03421627623396       -1.26731342154263
H            1.05149419797968       -2.95901895970611       -1.29991950290459
C            4.19039128240717       -1.81969609094956       -0.62405195260739
C            2.74112256421846       -1.41557472222723       -2.48679258165566
C            5.15426516415939       -1.01070701256124       -1.19892834948682
H            4.36980659186506       -2.27010452392059        0.34069123718187
C            3.70362948820470       -0.60278479635053       -3.06008217899208
H            1.79405549817611       -1.56737622966304       -2.98484178857693
C            4.91332768355667       -0.40088776732729       -2.41864154432475
H            6.09318596058388       -0.84888257201166       -0.68944465507057
H            3.50673086971622       -0.12276401319077       -4.00789557933900
H            5.66366160491866        0.23557427762408       -2.86428851131054
C            2.41186954119848       -4.29517760529250       -0.29186816580273
C            1.30922219311224       -5.14001510667158        0.11358354198527
H            2.89769895387467       -4.71415813185711       -1.17732338329851
H            3.13638434641426       -4.23678487230823        0.52282977531382
C            0.36387871194917       -5.79223285959080        0.44788002113706
H           -0.45301166248621       -6.37923906268776        0.74337112661359
Cl           0.75482401113169       -1.06840474466485        2.82101030761468
Cl          -1.21413687325784       -2.37784397802191       -0.15040913220216
O            0.64705072121464       -0.03325313789198       -0.26281434919741
O           -1.21522978940875       -0.05513762266555        1.45449154599863
C           -0.56035827209247        1.98807571916206       -0.15172955191357
C           -1.82490129289263        1.26481449086469       -0.34363213260276
C           -3.33987171876332       -0.29212046898602        0.57849942807392
C            1.77243852927873        1.92884891666750        0.30461678252900
C            1.83056055492669        3.32339661551906        0.42535702243089
C           -0.56034732998725        3.34927872563969       -0.05803774327156
C            0.63508133957163        4.07365395981982        0.21769488016482
C           -2.72407896287114        1.60752787302512       -1.31642674220275
C           -3.98429161033767        0.96202409539626       -1.39993988371479
C           -4.30643586960985       -0.00519529536432       -0.40683127554556
H           -1.49140314993870        3.88338883287572       -0.15433216816777
C            0.66847875487626        5.46192921021952        0.32035855513093
H           -2.46271016722721        2.36708184064120       -2.03472384341530
C           -4.91944095803470        1.25436110213104       -2.39744852125114
C           -5.56065981810140       -0.63796034655276       -0.44697706653557
Cl          -3.63117021387973       -1.37031930740867        1.85698623185396
N            0.60495756394475        1.29716550148018       -0.02251996237982
N           -2.13218253950853        0.30434997738936        0.56881591042279
Cl           3.12705201309715        0.92307073247040        0.53146403540546
C            3.01928610327045        4.01366719595814        0.73994142517264
C            1.85001003970879        6.11649217275730        0.62226553268144
C            3.01751899811940        5.38625066510032        0.83292750467228
H            3.92133218632595        3.44799937195809        0.90338840677365
H           -0.24125893615061        6.02157795973420        0.16370257764964
H            1.86599483509943        7.19238294994169        0.69912143010640
H            3.93334384000411        5.90472658144249        1.07341091723106
C           -6.14217364271240        0.61447360599135       -2.41934262481356
C           -6.45902049426010       -0.32822497445874       -1.44355428522413
H           -5.80135249980612       -1.36935433136081        0.30657727357235
H           -4.67013516129009        1.98742584704086       -3.14943224122350
H           -6.85665387654401        0.84529627377170       -3.19453213105331
H           -7.41844840265678       -0.82161388734401       -1.47029191362591
