57
 energy: -107.633631944151 gnorm: 0.000410018295 xtb: 6.5.1 (b24c23e)
Si           1.09483393444652       -0.23637804215835        0.71305902718508
O            1.46212065078849       -1.26032752064880       -0.47978459076324
C            2.42717384415292       -2.28753373697966       -0.51511983441372
C            3.81872327668098       -1.71060613624310       -0.50663976319968
H            2.29317234855010       -2.93387751606674        0.36178183870274
C            4.07502947416849       -0.52759106666677       -1.18669948449028
C            4.84653943481208       -2.34070520621590        0.17964420193159
C            5.34284932708256        0.02418653901823       -1.17405886808841
H            3.26700094324463       -0.03544471745158       -1.70716714440776
C            6.11690437419643       -1.79197062972941        0.18445543170631
H            4.64635164487602       -3.25353401098366        0.72137537908750
C            6.36677848368008       -0.60887170155882       -0.49005185042910
H            5.53119451141932        0.95110768101072       -1.69607430619089
H            6.91167038871490       -2.28415351260079        0.72543067327824
H            7.35706370627709       -0.17709570691612       -0.47698188561826
C            2.17756541139284       -3.09575114112215       -1.80072630908519
C            0.83020187576496       -3.62365623993503       -1.82191197060960
H            2.90307008303310       -3.91117314352582       -1.85493315329335
H            2.31670443363024       -2.43527389901443       -2.66031114392146
C           -0.29899647580062       -4.01918251612669       -1.80879112572662
H           -1.28369739303092       -4.38026195993804       -1.81843922833467
Cl           2.06612142847904        1.45781312502584        1.39587639322135
Cl           1.78240803025523       -1.41228557636891        2.36814951226795
O            0.39586585486565        0.76021931300348       -0.73670278966490
O           -0.50377965599060       -0.32614397149798        1.34793237118091
C           -1.57124302686150        1.77812728412665       -0.06286069406815
C           -2.17831952815613        0.44029345874399       -0.10250156068578
C           -2.02190465287489       -1.86127703710421        0.46584660647751
C            0.31350184220118        3.07631242324434       -0.64656527942725
C           -0.34580746355705        4.27106688836107       -0.29548771429813
C           -2.28047680769269        2.89913923243090        0.26559757584874
C           -1.67891472168291        4.18421690839122        0.19706816791537
C           -3.31717202858540        0.21043128554328       -0.81791494247694
C           -3.86614389989173       -1.09972913305053       -0.92407669116303
C           -3.18108197820715       -2.16286123883667       -0.26535464688919
H           -3.30195421204803        2.80188364007484        0.59448909135051
C           -2.34938216797905        5.35291052605156        0.56486593419175
H           -3.78738048822507        1.02816737359725       -1.33896839637541
C           -5.01953317909377       -1.37560161770517       -1.65551488768481
C           -3.69588504744958       -3.47102540747594       -0.37060198628397
Cl          -1.12015282047996       -3.03672913331667        1.29981336851514
N           -0.27968909756571        1.87525790078230       -0.47758317280629
N           -1.56927235552373       -0.57915389807583        0.55574377683214
Cl           1.85266716590882        3.06290947636735       -1.35890725914242
C            0.26048724575427        5.53459495549933       -0.41018819398018
C           -1.72859877994285        6.58172541789573        0.45241639792518
C           -0.42710524596039        6.66760989349040       -0.03640985013144
H            1.26875836541039        5.59871205803160       -0.78468496240595
H           -3.35926805421622        5.28084215843061        0.93897048485563
H           -2.25383950972980        7.47848403485694        0.74274671654638
H            0.04822299963171        7.63277152839106       -0.12187585527941
C           -5.50282074117004       -2.66907241348631       -1.74606907077028
C           -4.83739848053340       -3.70940672454280       -1.10175757029481
H           -3.18490255798780       -4.27267558601713        0.13732441752884
H           -5.53115622196996       -0.56547117731620       -2.15271371622852
H           -6.39610143580001       -2.87204414811485       -2.31593400031383
H           -5.22298305141432       -4.71512363558962       -1.17640846761334
