57
 energy: -107.628660081846 gnorm: 0.000655857439 xtb: 6.5.1 (b24c23e)
Si           0.62220020746465       -0.66738925039144        0.09695624917619
O            1.99046896068075       -1.51053493407862       -0.02065315745638
C            3.19019083786120       -1.55326881307672        0.71115226856909
C            4.36488297675878       -1.48601986608235       -0.22968861088350
H            3.22670632425097       -0.71091230331874        1.41112710403270
C            4.26489772034122       -1.98610029309866       -1.52044009590020
C            5.56842247072982       -0.94301685640785        0.20113653035825
C            5.35447278496852       -1.93778273343237       -2.37198848864758
H            3.32437664367674       -2.39771596798743       -1.85296859901836
C            6.65894359105845       -0.90322674884094       -0.64886137538062
H            5.64611288154181       -0.54675655028521        1.20377567978581
C            6.55367108959436       -1.39973531992252       -1.93745202280071
H            5.26713726968610       -2.32329830902225       -3.37724602167540
H            7.59160861453407       -0.47885447943248       -0.30666236580539
H            7.40446380219930       -1.36367712024766       -2.60209113168779
C            3.21448283036798       -2.87332401946220        1.50881086976035
C            2.09963677674193       -2.91925843325561        2.42983166531005
H            4.15881056436603       -2.94524594761945        2.05379959677415
H            3.14113896421007       -3.70688883871228        0.80510428725506
C            1.14679211992220       -2.91135282808706        3.15355938603353
H            0.32568518567983       -2.91554087163204        3.80611362040059
Cl           1.32031960234775        0.69362071258707        1.65159223530087
Cl          -0.19760868671782       -2.06793324572292       -1.31544487097041
O            0.27520382758072        0.58508312833624       -1.04112051213639
O           -0.86250240597440       -0.60988170590055        1.02097815460675
C           -1.58318081150380        1.72028007930455       -0.19727421478206
C           -2.38886864312097        0.49003762641301       -0.34519594598837
C           -2.75002534592279       -1.76858984247875        0.29105073982961
C            0.49514875708509        2.83579585046741       -0.48180575432096
C           -0.02644208245650        4.03706444333014        0.02560285318524
C           -2.15342987577828        2.86421284518220        0.27902122326292
C           -1.39500344385097        4.06184425124932        0.42192848461541
C           -3.53197784421878        0.48695372130849       -1.08788803530944
C           -4.33123554643300       -0.68648207300841       -1.19930787250614
C           -3.92227848371126       -1.84577193835104       -0.47893364051210
H           -3.18836811547389        2.85249842396921        0.57953371028599
C           -1.93814443726129        5.23951310790577        0.93222525922010
H           -3.81952351364811        1.37869428647504       -1.62056378271938
C           -5.48769987470857       -0.73738545190085       -1.97655845234751
C           -4.69835251142714       -3.01701402882581       -0.56961491826436
Cl          -2.17040916020608       -3.05672035350249        1.22349601167774
N           -0.28053689549336        1.72831531209672       -0.58628190117742
N           -2.02530514739297       -0.62666185568739        0.34038542570291
Cl           2.09602023939237        2.67552250296422       -1.02095369148146
C            0.74534954376774        5.20703250457788        0.15957741673513
C           -1.15971165227257        6.37648476692245        1.05476914227610
C            0.17805568719716        6.35341427966600        0.66806491680240
H            1.78075063845776        5.18589915587904       -0.13739841246931
H           -2.97477242099399        5.25182494770095        1.23287598627825
H           -1.58937516523353        7.28264805362011        1.45262353393504
H            0.77758100995618        7.24525923384661        0.76936226273099
C           -6.23284103082372       -1.89959532871261       -2.05089223005920
C           -5.83345735140297       -3.03382941137051       -1.34711291719063
H           -4.38517345748016       -3.89387054410784       -0.02755233209641
H           -5.79217066653337        0.14305243076647       -2.52181723431774
H           -7.12520380803944       -1.92915753793105       -2.65667562283226
H           -6.42117854436091       -3.93666286267437       -1.41395240318148
