57
 energy: -107.551359038417 gnorm: 0.000391501463 xtb: 6.5.1 (b24c23e)
Si           0.30524087406728       -1.09979033344043        0.98816139105805
O            1.89496389862747       -1.66896663243841        0.42676703983733
C            2.33516514260853       -1.73389529425793       -0.75537618675435
C            3.71327804958172       -1.89684182343096       -1.05146814611714
H            1.63085556521549       -1.65095811872281       -1.58263395771391
C            4.66635715340640       -2.00101811703124       -0.01912429350588
C            4.14991294381960       -1.94881172093868       -2.38869249577385
C            6.00027358137303       -2.15060114642956       -0.32083346085804
H            4.31881576551245       -1.95727102374170        1.00146232761479
C            5.48822029789074       -2.09787052221852       -2.67477610372021
H            3.42151211252069       -1.87021109230972       -3.18192545106030
C            6.41790300196063       -2.19981368820220       -1.64621641108581
H            6.72765189894456       -2.23148009317741        0.47336931051260
H            5.81937791098027       -2.13709943795642       -3.70214922608151
H            7.46578345268779       -2.31817503456820       -1.87786878898110
C            3.71103841538200        0.52302687316991        2.34763063948487
C            2.42406787678703        0.40523910340729        2.23425373034144
H            4.28552464598664        1.19200795202535        1.72600518849713
H            4.26114124115783       -0.03593671459080        3.08728417303494
C            1.15145990657257        0.25214339971237        2.07869551729353
H            0.47216769583720        0.86964920716485        2.65076871431536
Cl          -0.73120720900719       -2.38114931195248       -0.46669919343483
Cl           0.21413439638446       -2.54375853834749        2.52492519060986
O           -1.31248874077578       -0.24505504412223        1.46503977557559
O            0.26610611806069        0.14156303486397       -0.59393401087575
C           -2.32158040998259        0.83099286878713       -0.29460914700009
C           -1.24640866615231        1.83590612470827       -0.20046520226982
C            1.06443803154018        2.28413803839482       -0.35951832266263
C           -3.26460383485190       -1.13206769837315        0.61867450810265
C           -4.31204674052825       -1.11175362524302       -0.32510224839546
C           -3.32506676815817        0.92784724216370       -1.21487090143512
C           -4.34497032463171       -0.05292396292129       -1.27457913321751
C           -1.51377653636890        3.15728214118427        0.02515562394756
C           -0.46459762519199        4.10839661934503        0.10805982617194
C            0.86834165146127        3.65204384911057       -0.09895399114527
H           -3.32259146156184        1.74481719670970       -1.91856078306508
C           -5.37641440534858       -0.01560362268560       -2.22224583792203
H           -2.53493857018659        3.47361336584335        0.16357848863092
C           -0.68971407589429        5.46280418835747        0.37394800519848
C            1.92647231207460        4.57750967201664       -0.03914450934373
Cl           2.59307968139095        1.62033594451663       -0.72354068871051
N           -2.30719970939721       -0.19034552231116        0.60483507318417
N            0.03432203879506        1.41204491439637       -0.37877662797398
Cl          -3.15616682581621       -2.29119529430764        1.84872289824843
C           -5.31824579103542       -2.09571052954450       -0.35887635151304
C           -6.34683960668144       -0.99132068903489       -2.23520303903184
C           -6.31480747565228       -2.03043457052425       -1.30151075338622
H           -5.28435342211539       -2.89636628208182        0.36108873104965
H           -5.39480420376110        0.78838217187610       -2.94241599376905
H           -7.13682577748611       -0.95701148063344       -2.96980510002044
H           -7.08179709891896       -2.78929040083550       -1.32494398186407
C            0.36571691509035        6.34896008747819        0.43425346936447
C            1.67040846989229        5.90284146229181        0.22563703316526
H            2.93338782343510        4.22887335397742       -0.19945368477896
H           -1.70180950818249        5.80259814235097        0.53310649059390
H            0.18252028316696        7.39169934280491        0.64291817645708
H            2.48788363547541        6.60591806971694        0.27347470117919
