57
 energy: -107.631601024217 gnorm: 0.000510043272 xtb: 6.5.1 (b24c23e)
Si           0.29919920575886       -1.33263154408073        0.45791916817976
O            1.49317582644297       -2.21485604592821       -0.22924765647990
C            2.87420462977172       -2.26381767926712        0.01338984128780
C            3.64020878919722       -1.38346898142546       -0.94212420066480
H            3.07000204943771       -1.94238684069093        1.04605270210228
C            3.09800170583655       -1.02333150467374       -2.16698852361987
C            4.91048588957323       -0.93438471056595       -0.60053780479466
C            3.80839965715850       -0.20953874572103       -3.03211993186060
H            2.10868312694035       -1.36933097424478       -2.42339177170283
C            5.62237560461188       -0.12754088152867       -1.46918672093419
H            5.33370770533671       -1.20857415000747        0.35609047921244
C            5.07079609583550        0.23992522422281       -2.68574490049694
H            3.37401709962893        0.07437668433714       -3.97979126435298
H            6.60663749495860        0.22214816004694       -1.19310209050389
H            5.62410157125732        0.87753275266664       -3.35962239315470
C            3.32987074855420       -3.72926907726087       -0.14505769897256
C            2.73353653335991       -4.55808683480804        0.87972102150765
H            4.41961354668669       -3.77655188481976       -0.07616519935319
H            3.01756353201604       -4.08298497887967       -1.13090449358939
C            2.21475516759795       -5.20094725765591        1.74498614081386
H            1.76876129069774       -5.78109759294358        2.49617065147333
Cl           0.99735461419171       -1.20442190511794        2.38069624625641
Cl          -1.06835719628520       -2.48544613102720       -0.56999065540822
O            0.54364667329695        0.09426227884495       -0.47286319684331
O           -1.23182014092590       -0.38966558682744        1.29139872331767
C           -0.97182159333370        1.87304639077132       -0.11180500143608
C           -2.12507900394032        0.98831206075219       -0.32968290491853
C           -3.35882067719767       -0.83704921681676        0.51410312991795
C            1.35852042325934        2.15038694760787        0.26664856270756
C            1.20231505126339        3.51756232094140        0.52705990804901
C           -1.18085679895058        3.20150947866757        0.12029775753268
C           -0.10473276717475        4.08120658569801        0.43375558044873
C           -3.11577860718476        1.28133005618104       -1.22631675650023
C           -4.28004444894317        0.47581473285928       -1.30963056320016
C           -4.41317212274606       -0.60309014106659       -0.39129850373805
H           -2.18799658447313        3.58481078756201        0.10547089382205
C           -0.28714079177832        5.43973469551904        0.67642922364197
H           -3.00157429169260        2.12755582654876       -1.88372378163744
C           -5.30227715388239        0.71623276720720       -2.23318830435569
C           -5.57424602746303       -1.39443993826538       -0.42529161010573
Cl          -3.42156431891031       -2.05510700535860        1.69110214793903
N            0.29163664027313        1.36724496891255       -0.08280713544464
N           -2.24649511930045       -0.08000683582010        0.50263317385866
Cl           2.87218912500021        1.36823783872257        0.33693895243993
C            2.28040727727613        4.35857053488768        0.87266737741600
C            0.78879058131049        6.24552108460344        1.00746510724081
C            2.06558403037108        5.69743371331254        1.10558525063327
H            3.26805080524571        3.93514162726605        0.94876812557310
H           -1.28032763544636        5.85676627670024        0.60516605425019
H            0.63782240148216        7.29727606182681        1.19363427431609
H            2.89839531540517        6.33189815553022        1.36891280651795
C           -6.42917348735303       -0.07986325640405       -2.25215569951164
C           -6.56253481097573       -1.13090033785354       -1.34661239725659
H           -5.67199445332247       -2.20905375754669        0.27305172882139
H           -5.19561986462791        1.53333721537982       -2.93030027231468
H           -7.21183737050195        0.11192205613204       -2.97001141359578
H           -7.44953194262474       -1.74520448710152       -1.36958918252888
