57
 energy: -107.635286317536 gnorm: 0.000747256989 xtb: 6.5.1 (b24c23e)
Si           0.65698920951533       -1.10485301939070       -0.24777360560634
O            1.82514106264457       -0.00162355865831       -0.00644947192832
C            3.05554166243636       -0.01008264782212        0.69092932300790
C            3.90560685982254       -1.19370596453965        0.28818855005913
H            3.55770763173319        0.90791841123053        0.34095543063919
C            4.57408863998671       -2.00491618561564        1.19341097766815
C            4.01446171277572       -1.47090707145818       -1.07025594702730
C            5.32651166690843       -3.07678946277670        0.74459541456291
H            4.50460553601389       -1.82477498222940        2.25402105910178
C            4.75657628328315       -2.54695925892137       -1.51684280943909
H            3.49459770001737       -0.84379957073450       -1.77963481369792
C            5.41760971024206       -3.35431108230530       -0.60725145239804
H            5.83603413729941       -3.70476147303142        1.46073547727751
H            4.81556730838668       -2.75492045304853       -2.57471771732494
H            5.99684747757272       -4.19832558377280       -0.95096514134208
C            2.80313458623910        0.12822241799787        2.19832457344344
C            1.99500875399203        1.30029850860990        2.45793162531753
H            3.75843064069138        0.23073315068140        2.71783150186755
H            2.28071732126339       -0.76113401771171        2.55692426058306
C            1.32762891212814        2.27969722031677        2.62377541980452
H            0.74973851500543        3.13547998428453        2.80647854731347
Cl           0.50309879495653       -2.28709614332724       -1.90898568092428
Cl           1.32476072902162       -2.64661077309355        1.06168248498368
O           -0.68224132154713       -0.87613286291022        0.81764383307655
O           -0.14778177320728        0.20042940617308       -1.37237699669040
C           -2.33031793157672        0.63810653541613        0.08764958339563
C           -1.30885669125402        1.68472560571689       -0.03463446365039
C            0.67326383359452        2.35514586056764       -1.12253046796767
C           -2.83464165516280       -1.66201648912020        0.41176712657918
C           -4.19472986868824       -1.44572205014955        0.14421257296542
C           -3.64308380503494        0.91047612656011       -0.16646887694352
C           -4.62957931148456       -0.11567803358716       -0.13261918556850
C           -1.43922154359588        2.91371951559896        0.55253935556482
C           -0.45959029472657        3.92050890647265        0.34967693715418
C            0.62792998583489        3.62894279324187       -0.52156059389189
H           -3.93093371165562        1.91366850127561       -0.43523623389230
C           -5.97829408259002        0.12757944206317       -0.38478383295766
H           -2.28202420548357        3.10578101542120        1.19600891892527
C           -0.52465832210095        5.17354726648888        0.96530866346693
C            1.60869914743555        4.61039525908314       -0.74497509809975
Cl           1.86616521279799        1.92629576887167       -2.25032845616922
N           -1.94853642112503       -0.62432413691873        0.42115123890677
N           -0.25610429490755        1.41861087502561       -0.84981299417070
Cl          -2.19046356759367       -3.19853847389953        0.76107165991583
C           -5.14647298274648       -2.48568085156538        0.14358905227221
C           -6.89381509308200       -0.90920474455006       -0.37056238375356
C           -6.47045732489243       -2.21098347375614       -0.10947396031105
H           -4.81811969825077       -3.49145998115511        0.34627726346405
H           -6.29877573289358        1.13713339784519       -0.59334631921530
H           -7.93613492706524       -0.71091036937842       -0.56567980280128
H           -7.19152796116125       -3.01427187471651       -0.10612188917062
C            0.45654605081852        6.11898957192691        0.73633303152935
C            1.51866984768455        5.83383419158121       -0.11773169454629
H            2.43018370524837        4.38902509802749       -1.40642828343847
H           -1.35152823188161        5.39000438614554        1.62522416217218
H            0.39999949687370        7.08163204449917        1.22083811614125
H            2.27984562148372        6.57924832902131       -0.28991998823290
