57
 energy: -107.628730968897 gnorm: 0.000662407173 xtb: 6.5.1 (b24c23e)
Si           0.74363111792395       -0.38673677492070        0.49333312535434
O            2.21045928667001       -0.96378749611981        0.82125368455112
C            2.97195898753738       -2.06712960703760        0.39622755766564
C            4.18651914002825       -1.58886994676944       -0.35856346811598
H            2.36509196482914       -2.71166958643600       -0.24981043688121
C            4.72275335682615       -0.33262732874996       -0.11200926095766
C            4.78934241476045       -2.41649669558899       -1.29710528011142
C            5.84345979399447        0.09370484491473       -0.80273585623303
H            4.24738925135075        0.30864526837966        0.61459505697454
C            5.91477708686071       -1.99192655035130       -1.98010032282229
H            4.36983725545923       -3.39278048738136       -1.49532672305310
C            6.44277099749161       -0.73506836851773       -1.73572040015323
H            6.25063607660793        1.07571105867145       -0.61041568503531
H            6.37713776005430       -2.64106995346018       -2.70946957269645
H            7.31796620608560       -0.40209773426350       -2.27440356176628
C            3.38978821041665       -2.86393902807666        1.64750891058047
C            2.22901655114646       -3.43843014537854        2.29332865182611
H            4.08232146968064       -3.65607294463141        1.35125357869205
H            3.89552939956878       -2.18526879384380        2.33921895918298
C            1.23892009902870       -3.88411874344086        2.79572251011539
H            0.38896149783057       -4.29084013752903        3.25636166907095
Cl           1.20004779964927        1.19377466252022        1.87149147975646
Cl           0.16077807831805       -2.02576666299801       -0.84107078363507
O            0.37797288592092        0.66356550872026       -0.83437393493140
O           -0.81382500560569       -0.40232936284561        1.27423161430222
C           -1.60821919249481        1.73170696808464       -0.23870599275643
C           -2.30826093074788        0.43179801750197       -0.30482398838660
C           -2.55327949495357       -1.77370854517926        0.53932995664439
C            0.39586345125044        2.97282944044094       -0.52657486655614
C           -0.24445773709613        4.17429678883205       -0.18187814094401
C           -2.29143889004709        2.86836050122813        0.07730038123115
C           -1.63344519092273        4.13039511247028        0.13273163999189
C           -3.38765207263164        0.26195885676752       -1.12047185007894
C           -4.08822483890055       -0.97758158497092       -1.16408670773333
C           -3.65467288220919       -2.02149333510831       -0.29651157076483
H           -3.33997036784988        2.80513687936618        0.31857257119328
C           -2.29350562835666        5.30727488575220        0.48253279195665
H           -3.69788094788797        1.07082147374861       -1.76162254826470
C           -5.17089812365037       -1.20011712535909       -2.01342144065684
C           -4.33615445988904       -3.25343850556104       -0.31437739082785
Cl          -1.95550625747678       -2.91142503921510        1.64036490245409
N           -0.28832593798197        1.80354085258113       -0.55637455355407
N           -1.91421841613452       -0.57973385608192        0.51388935172577
Cl           2.03190607135854        2.88651985770809       -0.95398695471008
C            0.42913177894717        5.40978202382225       -0.13102699323657
C           -1.61026110025492        6.50879623000371        0.52622432267284
C           -0.25195245416361        6.55293112389015        0.21972389314454
H            1.48020814403692        5.44104606835997       -0.36532860951862
H           -3.34535551036074        5.26729908039925        0.72166035558151
H           -2.12970406286012        7.41384951801244        0.80035024224765
H            0.27249643918815        7.49552900273938        0.25913670914946
C           -5.82184572032383       -2.42032522666573       -2.01626502086993
C           -5.40126337553489       -3.44013992087161       -1.16571071643524
H           -4.00654088164155       -4.04230964523583        0.34139102627499
H           -5.49279209921923       -0.40703710418137       -2.67113210764464
H           -6.65686751713494       -2.58320647149122       -2.67979606196026
H           -5.91598147649017       -4.38882131666304       -1.17565714104580
