57
 energy: -107.636678054207 gnorm: 0.000535822354 xtb: 6.5.1 (b24c23e)
Si          -0.15773922998364       -1.74360477032873       -0.68877193441824
O            1.40698569741011       -1.30188430471465       -0.67547343851559
C            2.56712105181044       -1.98843497904593       -0.24769037664226
C            3.10845762686944       -1.29557286902295        0.97762855293284
H            2.29785906066243       -3.02016885617394        0.00210508560266
C            3.45379256271590        0.04883794770285        0.92669460012652
C            3.22374753724047       -1.97895323077230        2.18013756917379
C            3.90809200847616        0.70137542861751        2.05811286237255
H            3.35789331932050        0.59228137386146       -0.00056774573074
C            3.68894755578693       -1.32880923398047        3.31009914478628
H            2.93906986852221       -3.01941687732203        2.22968655623974
C            4.03066350860482        0.01178443647516        3.25229460615927
H            4.16601389537310        1.74949737368343        2.00303661915773
H            3.77764083059791       -1.86933023835181        4.24092061875369
H            4.38856326854763        0.51882573525344        4.13645049903154
C            3.58562123676736       -2.00647710878995       -1.40074833690448
C            2.98978215151701       -2.61715518545855       -2.57052146165135
H            3.89446173287677       -0.98524286865023       -1.63903693260847
H            4.46315019821113       -2.57524321493259       -1.08339022423326
C            2.42298555286739       -3.10080434452993       -3.50636236401589
H            1.94556096973843       -3.53344894918993       -4.33385993107886
Cl          -1.12071080021401       -2.61262422303917       -2.26460039011309
Cl          -0.01205923383451       -3.50720358968866        0.48841697739655
O           -0.99420778187647       -1.04234066978127        0.65033543492258
O           -0.50532361895809       -0.14595262075631       -1.63153410698550
C           -1.73423154674600        1.17394432999361        0.33801532808399
C           -0.39077136706167        1.58019601176020       -0.09470965174018
C            1.25876122118994        1.34530120808247       -1.76920579690021
C           -3.26604774201071       -0.58164423756848        0.81127925701154
C           -4.33517234003017        0.31971759295420        0.91715849453340
C           -2.73323771670760        2.09789166821106        0.44306001409602
C           -4.06728393918409        1.71160667326935        0.75651587645317
C            0.28321772287747        2.63022675778798        0.46650397544586
C            1.52899389784128        3.05724409330638       -0.06355198755661
C            2.01132267659857        2.41328129526762       -1.23860139196339
H           -2.51431129590087        3.13452035826812        0.24548689211553
C           -5.10895309586106        2.62954780636877        0.87653463889922
H           -0.13008947614606        3.12445861984990        1.32998380894814
C            2.28309171237054        4.08393394033232        0.51014369172993
C            3.22361440458405        2.84355980728886       -1.80737788305600
Cl           1.71538714708117        0.49856362615233       -3.17283697509671
N           -1.99622265163158       -0.14001778013034        0.57535848183508
N            0.12161904387951        0.93420938262029       -1.17399181826285
Cl          -3.44886271245580       -2.26579157608556        0.98454255007695
C           -5.65738795872132       -0.09188583805369        1.18195989683920
C           -6.39573897251970        2.20072488114613        1.14666106884394
C           -6.66223004627022        0.84065004809322        1.29399851681224
H           -5.86168289041708       -1.14331883534419        1.29684275775190
H           -4.89759135345453        3.68101893301308        0.75359294943584
H           -7.19517027618931        2.91919512366002        1.23896125572172
H           -7.67083016218864        0.51514585049936        1.49862225768247
C            3.48015774906565        4.47649423353727       -0.05719250662121
C            3.94288753520891        3.85928089660803       -1.21662705710330
H            3.57942073574714        2.36094992291298       -2.70303830497650
H            1.91675110805666        4.56397311154104        1.40472095275142
H            4.05774707419979        5.26660197180504        0.39746942913467
H            4.87563154574591        4.17818596175291       -1.65606060466865
