57
 energy: -107.634990342299 gnorm: 0.000909298606 xtb: 6.5.1 (b24c23e)
Si           0.20691805725340       -1.53171542264648        0.67980633148078
O           -0.72371215920875       -2.06921375693688       -0.52090893193104
C           -2.03254304760226       -2.58520536091390       -0.54170692701129
C           -3.00259296160542       -1.48205669765954       -0.88929601939918
H           -2.27788559655857       -3.00218686369738        0.44382605970852
C           -2.57864615208573       -0.39087520941629       -1.63660464945028
C           -4.32318772835777       -1.54451079650459       -0.46453680889027
C           -3.46023956227909        0.62924577901340       -1.94710201089166
H           -1.54896718930357       -0.34561669043045       -1.95860792522312
C           -5.20500866483904       -0.52641297027283       -0.78085254097034
H           -4.65392268887705       -2.38787309531528        0.12466847490680
C           -4.77508269443093        0.56318725922830       -1.52012177551178
H           -3.11988082715004        1.47921652701356       -2.52118921694211
H           -6.22938613330435       -0.58002849310658       -0.44246475950331
H           -5.46195537605132        1.36110577254260       -1.76057846735695
C           -2.08425795295284       -3.70665688436064       -1.59504073762920
C           -1.26766332497329       -4.82666585633124       -1.17861862750426
H           -3.12073828441476       -4.02804034129657       -1.72569937807542
H           -1.70945180798303       -3.31023307158941       -2.54192975874188
C           -0.57887702548048       -5.72410028457203       -0.78936258365871
H            0.01640656780780       -6.52359599706362       -0.46350724902425
Cl          -0.77798695123369       -2.47640821126744        2.32328377216337
Cl           2.05550835339203       -2.28232228549844        1.17892730723890
O            0.98302421406190       -0.55224889260461       -0.76022858611827
O           -0.03554452611825       -0.01761717022200        1.47772756018410
C            1.83505595465907        1.43571546640105        0.04891522101652
C            0.43995673728355        1.88377654570343        0.17680915912224
C           -1.76572413895514        1.44998496601709        0.94988016814666
C            3.27748571535822       -0.22194458572202       -0.81969719508429
C            4.41813301569806        0.53117953320496       -0.47637105535855
C            2.89528120069818        2.23415258861938        0.37380042198489
C            4.22729536677926        1.79182490813569        0.15730648351043
C            0.03048797034871        3.05452261887702       -0.39283051962813
C           -1.33022814496716        3.47316724948667       -0.32264395673944
C           -2.24909078449351        2.63327480030690        0.37195468950618
H            2.71573821292648        3.19999703739846        0.81653546180029
C            5.34336496642372        2.55040837733630        0.51960179497130
H            0.74452952504289        3.65732740613942       -0.92958883391139
C           -1.78711562811514        4.65063967491941       -0.90982338682181
C           -3.60114614421571        3.02089881251539        0.45036822587195
Cl          -2.75461574037427        0.38413756296684        1.83481705556481
N            2.03894421774980        0.21248242260787       -0.50950382308302
N           -0.44851368983578        1.10679983021381        0.84901625885242
Cl           3.36904363935036       -1.67752497613096       -1.68663580778739
C            5.72658329027334        0.08324940772477       -0.73049505880459
C            6.61845583815172        2.08389411971152        0.26889124708373
C            6.80504723659672        0.85260746546321       -0.35625613222645
H            5.86709286506631       -0.87097968297137       -1.21049029009351
H            5.19308155201195        3.50491621997124        1.00056985033749
H            7.47400644602943        2.67481949948138        0.55738263320240
H            7.80611605606699        0.49763497006897       -0.54752713598902
C           -3.12138627855632        5.00897266612755       -0.82138906294657
C           -4.01974683234129        4.19127558743635       -0.14100214889858
H           -4.29507212127453        2.38577191023777        0.97495314232622
H           -1.08608416363061        5.28114770748846       -1.43558546165349
H           -3.46473687768563        5.92334128425270       -1.27972861503044
H           -5.05812379977543        4.47911261992100       -0.07573288108935
