57
 energy: -107.635610512782 gnorm: 0.000809366345 xtb: 6.5.1 (b24c23e)
Si           0.45466293738935       -1.11819004894033        1.43145320531515
O            0.30099374540517       -2.29187930870257        0.36149813654827
C            0.75794929683434       -2.50658345152897       -0.96471997079988
C            2.25662859082265       -2.63599338009357       -0.99530771351679
H            0.45324861730842       -1.64790176172268       -1.56839438295990
C            2.92981595816669       -3.28851480202667        0.02862059765435
C            2.97995278919483       -2.08201431746935       -2.04252684031107
C            4.31053399097750       -3.37360026188285        0.01215718520643
H            2.36955055914696       -3.71239343592349        0.84908898918725
C            4.36014011875125       -2.17380889886403       -2.06147226842884
H            2.45691285016775       -1.56715445570718       -2.83542874053487
C            5.02784406389795       -2.81603711290454       -1.03225103342945
H            4.82629380111860       -3.87281949594931        0.81905550562221
H            4.91660788645151       -1.73299904154730       -2.87577219625756
H            6.10614143192550       -2.87703441145979       -1.04226635681779
C            0.05617286827267       -3.77264131090138       -1.48138909882779
C           -1.35618996141112       -3.51183546719020       -1.66533198694926
H            0.50774068596315       -4.06775653784675       -2.43182341836554
H            0.19476332304448       -4.57789023396626       -0.75577190557857
C           -2.50851946986250       -3.22050564600819       -1.80274251702607
H           -3.52492789375790       -2.99265323424385       -1.92816587494235
Cl           2.17050346073786       -0.10021801366579        1.69700910222932
Cl           0.22669478976135       -2.14988225052771        3.16330998631793
O            0.52469778949137        0.24443678182635       -0.72254073342152
O           -0.81367920152636       -0.03175012586909        1.56888466643561
C           -0.55398260224710        2.14888288534904       -0.06839225425789
C           -1.78122282537468        1.34119845311735       -0.07685421612289
C           -2.87935732040521       -0.67287998290405        0.59092985479629
C            1.73850869747210        2.17320495356975       -0.58352169440789
C            1.83941756237825        3.54750850661179       -0.28529187560672
C           -0.53653448156631        3.48860861693569        0.21680653688887
C            0.66312863652441        4.22774550929441        0.13448493562398
C           -2.84909378591580        1.69046546179858       -0.84213037170183
C           -4.00429690217327        0.85500392059309       -0.93065724273516
C           -3.99205208115952       -0.37066473432979       -0.19648974705839
H           -1.45037079942442        3.97319763866749        0.52035365415825
C            0.73779854171160        5.59656974602494        0.43772583613823
H           -2.80337880228982        2.59393904293333       -1.42835970418688
C           -5.10472324028662        1.17632930672242       -1.71648438813423
C           -5.11291964435091       -1.22644977893176       -0.29678970860403
Cl          -2.75844347714978       -2.10771357719284        1.50368323107111
N            0.58626277229493        1.49886293108390       -0.45531860021129
N           -1.81615674820434        0.19700146445324        0.66721233072585
Cl           3.06326066830431        1.26172942225094       -1.16096431188834
C            3.04601839146634        4.26079688493361       -0.38922028790730
C            1.93167953893100        6.26988226182268        0.33143331363820
C            3.08541076414359        5.60018253774895       -0.08250498127122
H            3.93389802708790        3.73949919941263       -0.70776656841991
H           -0.15783566981014        6.10791993654213        0.75654366005246
H            1.98097872382999        7.32176841521186        0.56856345592546
H            4.01616904295201        6.14081074921386       -0.16102197381068
C           -6.19250240074445        0.32135701651005       -1.79457900864529
C           -6.18557027851896       -0.87607681414201       -1.08276284060184
H           -5.11243726325042       -2.15119481057695        0.25707856297768
H           -5.10137469063852        2.10442921193192       -2.26842133162853
H           -7.04201678191200        0.58167388136840       -2.40626482417058
H           -7.03527459996297       -1.53951903289472       -1.14921177696372
