57
 energy: -107.636499760730 gnorm: 0.000551507944 xtb: 6.5.1 (b24c23e)
Si           0.17979900965603       -1.70999420165380        0.55213953715947
O           -1.38789093491325       -1.27659252263304        0.52908481034171
C           -2.54165694318349       -2.00847521654482        0.17199908755789
C           -3.19755339820502       -1.37232062406108       -1.02646089472241
H           -2.25319544347654       -3.03723863006632       -0.06853334953999
C           -3.39073460803943        0.00204661854504       -1.06825509744437
C           -3.62214259872012       -2.15026479227888       -2.09478929294775
C           -3.99602619043897        0.59302181107351       -2.16238171415912
H           -3.05746290839946        0.61093116038739       -0.24193150095917
C           -4.23719252549918       -1.56019402368321       -3.18506294202701
H           -3.46292997567432       -3.21822120962522       -2.07215731695695
C           -4.42472957709898       -0.18851014686431       -3.22186261519028
H           -4.13465595578283        1.66478653286916       -2.18254725338280
H           -4.56622486452127       -2.17283312393431       -4.01151384797211
H           -4.90143183564664        0.27009555011278       -4.07586203837121
C           -3.50722789392728       -2.02810101512638        1.37249858438608
C           -2.85018078673745       -2.60579531214905        2.52564889639777
H           -4.38725024058741       -2.61808490229510        1.10464216553023
H           -3.82383059163996       -1.00611251965607        1.59945964704332
C           -2.23338787991386       -3.06309707468484        3.44317628926397
H           -1.71086705398739       -3.47759770609019        4.25255471659717
Cl           1.14299324129102       -2.62305520241122        2.10268137339048
Cl           0.05068094699968       -3.43760856241623       -0.68015247032397
O            1.02491814058249       -0.95414567756103       -0.74941095270703
O            0.50887728996564       -0.14148874157325        1.55898228886526
C            1.79311759870284        1.23243184965980       -0.32810747342532
C            0.44313229326045        1.63880947480194        0.08386616616109
C           -1.24777537859512        1.35884355022458        1.70914400574692
C            3.30852180249866       -0.52472858218813       -0.84445140627138
C            4.39536678056328        0.36141937120998       -0.86853927476325
C            2.80917088598006        2.14278219490633       -0.35539867907150
C            4.14672854992321        1.74763117141573       -0.64126837662701
C           -0.20547709254981        2.71698982638059       -0.45272563779149
C           -1.46275334951967        3.13331038237208        0.05941935402715
C           -1.98268581709689        2.44715815691794        1.19435259929383
H            2.59999005068944        3.17239011325967       -0.11511076197679
C            5.20828725606958        2.64998220902482       -0.67141368854133
H            0.23588273437354        3.24138778503572       -1.28393934658991
C           -2.19280386460226        4.18823209927844       -0.49351215352100
C           -3.21040400158180        2.86037819674241        1.74153086049989
Cl          -1.73075815128894        0.48219355619922        3.08577602330911
N            2.04011049685405       -0.07305559588610       -0.62033350835575
N           -0.10128143893838        0.95728114902697        1.12497050578063
Cl           3.46848315450824       -2.20010461437879       -1.10203936887521
C            5.71866825079481       -0.06036371824203       -1.11146803278502
C            6.49640264113255        2.21137807839062       -0.91814773160812
C            6.74338967247887        0.85680606899923       -1.13444242466318
H            5.90820180608548       -1.10747865119601       -1.27891959941517
H            5.01119395725442        3.69684085232884       -0.49637550260807
H            7.31171086123426        2.91752709943897       -0.93909133197528
H            7.75280389729250        0.52345680482499       -1.32172843263754
C           -3.40406716978526        4.56594200742836        0.05352933280240
C           -3.90621853067782        3.90350149565449        1.17068290198160
H           -3.59683432766027        2.34363693818063        2.60471583816655
H           -1.79640993263683        4.70214868747521       -1.35590750978022
H           -3.96195097649595        5.37908958732006       -0.38472293307368
H           -4.85107608038480        4.20889198771895        1.59340947675973
