63
 energy: -105.890343307241 gnorm: 0.000666348970 xtb: 6.5.1 (b24c23e)
Si           0.31692517586999       -1.55661641914503        0.57837143068022
O           -0.80066155419867       -1.91698933698544       -0.52876666678385
C           -2.02665535338462       -2.60048465106917       -0.48223226075133
C           -3.15179609309094       -1.61661480195284       -0.69057262672515
H           -2.13692106944176       -3.09234485337669        0.49215896781934
C           -2.94278065653021       -0.46629333242949       -1.44074381220325
C           -4.40293040928623       -1.84684238905905       -0.13263839880769
C           -3.96640287712359        0.44643739835843       -1.62319374307425
H           -1.96673769494967       -0.28982562673120       -1.86690237110083
C           -5.42837657612740       -0.93644627116309       -0.32169335262016
H           -4.56710449621464       -2.73611100829445        0.45867147248973
C           -5.21120825020633        0.21273966129565       -1.06423142337290
H           -3.79258978753577        1.34248080382835       -2.20106151429255
H           -6.39751220621738       -1.12130014686503        0.11812582572147
H           -6.00961012399654        0.92621116200064       -1.20460094127464
C           -2.02356951782547       -3.66881919676497       -1.59249630962823
C           -0.97508039256561       -4.63558342380675       -1.34623130504993
H           -2.99631516766470       -4.16583651411195       -1.61621728080088
H           -1.84894300252178       -3.17536499300328       -2.55208124226852
C           -0.08425615212707       -5.39703216906358       -1.10691515855574
H            0.68891283051945       -6.07512755119045       -0.90197747312521
Cl          -0.60035523323174       -2.57134294299347        2.26782221024509
Cl           2.12505590403881       -2.48047707804593        0.93076196620597
O            1.03280760938050       -0.62418148036291       -0.84399879900289
O            0.19076677395295       -0.08791688667764        1.47297024008785
C            1.89112950775689        1.36917085180858       -0.07964413828473
C            0.49140201943153        1.78371511877932        0.11438379406558
C           -1.62737491531949        1.34209856166217        1.11854333343268
C            3.33267936082234       -0.26841392835431       -1.02018419974560
C            4.45433731010299        0.53469029519237       -0.71801385763389
C            2.93711488041156        2.20266345085224        0.19520356608911
C            4.26848171634009        1.79403819060361       -0.08079663019210
C            0.01295124424923        2.90920865550691       -0.49124237105907
C           -1.35470533352369        3.27951411233799       -0.35614779385687
C           -2.17846404475528        2.46529511364583        0.47360651747155
H            2.74852043221351        3.16610399905431        0.63985224457598
C            5.37462324921658        2.58810358633112        0.22954373278938
H            0.67099069728883        3.50094157559591       -1.10649132876081
C           -1.89611058182594        4.38644271820969       -1.00633290111445
C           -3.53865156305698        2.81753552087614        0.61265666156407
C           -2.41163501683646        0.50127797039161        2.06221974212181
N            2.10867433869725        0.15263428760960       -0.64338455378218
N           -0.32348102385869        1.03120449183165        0.89405933620523
C            3.43911139272594       -1.53876822398219       -1.78609379733808
C            5.76945475333673        0.12792715681908       -1.02268570493789
C            6.65154015820542        2.15974223383528       -0.07672891173769
C            6.84149356891491        0.93040793544655       -0.70221266200436
H            5.93584671423723       -0.82541884800861       -1.49530439569666
H            5.21671447817412        3.53965836073476        0.71459858336683
H            7.50212309746406        2.77655430480560        0.16951886969395
H            7.84262454840658        0.60099684751021       -0.93674998862033
C           -3.23449489677365        4.70479807745867       -0.85376819385123
C           -4.04614203732236        3.91623900219349       -0.04408665004100
H           -4.18516218217363        2.21290168946730        1.22582140097509
H           -1.25775124727679        4.99160325436003       -1.63271828715953
H           -3.64734138190336        5.56230749219683       -1.36241323470986
H           -5.08995270073927        4.16847813993845        0.07014919268565
H            2.44625570987226       -1.90440193172551       -2.03145869416237
H            4.00345011436936       -1.37592661717136       -2.70375512754913
H            3.94348617642290       -2.30108243288866       -1.19429906962548
H           -3.21290212616877       -0.01994573949692        1.53775945693807
H           -1.77983076089148       -0.24223236854373        2.53831959966369
H           -2.86080233575242        1.12588314271581        2.83405502641426
