63
 energy: -105.892488454695 gnorm: 0.000416830649 xtb: 6.5.1 (b24c23e)
Si           0.05341411192457       -1.71426338273221       -0.64740341434553
O            1.62153098994463       -1.29368136040731       -0.49520321641255
C            2.59565096851538       -1.75689107793562        0.41843736345982
C            2.31828016568834       -1.17685261849143        1.78260009946627
H            2.54966473126504       -2.85057211820932        0.46237490884570
C            2.17046058695785        0.19699678293702        1.92241025014656
C            2.16125477709712       -1.99334003301863        2.89275535337695
C            1.86472609263678        0.74920957503388        3.15216162298917
H            2.28771792234861        0.83726841035476        1.06062655865901
C            1.86154942211814       -1.43963031849803        4.12541297650474
H            2.25620026757183       -3.06317697497554        2.78602903703284
C            1.71041427209175       -0.06975529024530        4.25777745275043
H            1.74776694352302        1.81981924240827        3.24411428945189
H            1.73619357020048       -2.08219620595580        4.98430468954206
H            1.46891621509199        0.35897519548700        5.21957326286232
C            3.98256990680740       -1.32576529940064       -0.08749865923768
C            4.26217834250174       -1.89958072391249       -1.38613125457687
H            4.73173895460034       -1.66219534524893        0.63388665126842
H            4.02332012347183       -0.23467191918017       -0.15133232232111
C            4.44566258578790       -2.37582086731009       -2.46877727934194
H            4.62388225703982       -2.79970970244523       -3.41140107683406
Cl          -0.77291508855733       -2.72310120960952       -2.23382814793916
Cl           0.10151132306705       -3.45137147301975        0.62248900753235
O           -0.92267503573596       -0.97937211130327        0.56825640200069
O           -0.20130565559562       -0.24888991631245       -1.71291305637143
C           -1.77034452983539        1.11413580861667       -0.04046324053229
C           -0.40403096171896        1.58119414923103       -0.31612118838839
C            1.50279154635713        1.33186155561290       -1.71524868528530
C           -3.23290336476470       -0.71042023626597        0.45079142530358
C           -4.35315469913412        0.11967654563851        0.26018871101541
C           -2.82647520895991        1.96793690653626       -0.17849220659075
C           -4.16141972752194        1.50451418917176       -0.02418690782407
C            0.10564426927851        2.71588566269710        0.25187986181886
C            1.40710399036958        3.16666483946280       -0.09372299231659
C            2.11041664160755        2.45301516666651       -1.10731355467950
H           -2.64639477248395        2.99329983239335       -0.45757028248662
C           -5.26083515642938        2.34735528498693       -0.17974607464141
H           -0.47026319669490        3.24667473833922        0.99176362488647
C            2.00378674230017        4.26834320613574        0.52262574731410
C            3.40882279734729        2.88354278413957       -1.44850476470936
C            2.09491221111036        0.59088383111917       -2.85941198749992
N           -1.98876687166674       -0.17816912954093        0.31286497515788
N            0.30847433882909        0.90907169930094       -1.25410474039398
C           -3.32054260648728       -2.15347951357554        0.79826139289613
C           -5.68032070199556       -0.35978006093809        0.33749147962230
C           -6.54688695076624        1.85073440460380       -0.07500474547539
C           -6.74587341858428        0.49510342759961        0.17353852660364
H           -5.86175431362850       -1.40627395247874        0.51623599095459
H           -5.09288687924486        3.39334083499440       -0.38887898739794
H           -7.39345923957374        2.50862005693475       -0.19554998315201
H           -7.75192823228306        0.10794310093934        0.23669263510103
C            3.27710750486132        4.66865436637364        0.16352428902555
C            3.97410796683884        3.97079413543837       -0.81784378068131
H            3.96982990652513        2.34598459818001       -2.19531791685261
H            1.45649962460613        4.79976348385757        1.28672793622667
H            3.73232799820833        5.51936056931083        0.64680165956108
H            4.97181444894233        4.28294499549550       -1.08789092356667
H           -2.42871521746585       -2.47082727591293        1.33413829454879
H           -4.19249059064021       -2.35495336020428        1.41343289407249
H           -3.38477154794889       -2.75792333685970       -0.10927479179476
H            2.82723470090490       -0.14305560432444       -2.51929765275360
H            1.31075498999569        0.04386124750446       -3.37749154230313
H            2.57816475938427        1.27703779081254       -3.55097899328902
