63
 energy: -105.884503525058 gnorm: 0.000780024231 xtb: 6.5.1 (b24c23e)
Si           0.73691583967441       -0.36929171083051        0.56676226250927
O            2.26436670573148       -0.80483092731556        0.85287072109292
C            3.10383505473788       -1.84699337423627        0.42900250275682
C            4.26596753521606       -1.28420486864202       -0.35010115430567
H            2.54174690094527       -2.54613053070896       -0.20052084394408
C            4.68121277280067        0.02542181326538       -0.15400482330491
C            4.94239369055157       -2.08570378381635       -1.26097239154483
C            5.75550841284637        0.52940112129224       -0.86607636536352
H            4.14874238190453        0.64412634132136        0.55210818792284
C            6.02095936865474       -1.58267615893332       -1.96559682164295
H            4.61654765283123       -3.10385856704044       -1.42072110431361
C            6.42881258951515       -0.27338247373007       -1.77070889780071
H            6.06952795985010        1.55148710538615       -0.71152061779158
H            6.54148071563980       -2.21204974265931       -2.67270600878270
H            7.26835352141922        0.11952297624945       -2.32531213917982
C            3.60497348311172       -2.59444202143564        1.68052981586077
C            2.50536262833321       -3.25861266513422        2.34543723298886
H            4.35832838240888       -3.32778109794147        1.38259899021212
H            4.05942018138100       -1.86875249137219        2.35959875106280
C            1.55755587016532       -3.78005601456343        2.85646529331641
H            0.75238705295574       -4.25650091232278        3.33045963433974
Cl           1.11253068964222        1.26878297575548        1.90295021764124
Cl           0.25877633865564       -2.12742384174253       -0.65904629903046
O            0.32224509651238        0.59092427603938       -0.79703201835766
O           -0.80325182620579       -0.44104107752765        1.35610809223382
C           -1.73690936287019        1.53186909928280       -0.27054285818171
C           -2.34101613035851        0.18260930958519       -0.26230146851068
C           -2.45789188412580       -1.97927311827894        0.74219539930125
C            0.17949548644193        2.91538923273093       -0.60145688493771
C           -0.58322415368763        4.06425105582007       -0.31666651745345
C           -2.52349338710970        2.62035227179462       -0.03125561611483
C           -1.97306307089066        3.93159627862100       -0.03491795440212
C           -3.40468606381112       -0.09678134603187       -1.06919475983069
C           -4.02587441228310       -1.37592439654689       -1.03623639347479
C           -3.52971518330737       -2.32941448184638       -0.10128850166708
H           -3.56732777041158        2.48060532336983        0.19847256667586
C           -2.74307187131627        5.06174152875965        0.23573383670082
H           -3.75769564650443        0.65114231471875       -1.76050183318795
C           -5.08544369710663       -1.71027539502068       -1.87836762901897
C           -4.13225766096160       -3.60540321623539       -0.06824086094963
C           -1.89643282790683       -2.89530368444154        1.77058429074774
N           -0.42425447593683        1.70481535351087       -0.57296210303502
N           -1.90038079940432       -0.75369482140389        0.61751137572042
C            1.62811295886133        2.96601021030585       -0.93272300772512
C           -0.02064082102315        5.35880154592583       -0.29061851610572
C           -2.16588245052889        6.31815725840336        0.24081082277662
C           -0.80470680296473        6.45632466525959       -0.01698049519766
H            1.03266925242420        5.48687554846132       -0.47417435237283
H           -3.79544313947966        4.94155317505050        0.44526848296058
H           -2.76715130998033        7.18914827766359        0.45085187072230
H           -0.35750393587690        7.43906531846038        0.00000143224557
C           -5.66014668542031       -2.96650052569612       -1.81757169988646
C           -5.17568330407532       -3.90770028094011       -0.91350807024991
H           -3.76313103389843       -4.35274554611153        0.61385192157590
H           -5.44847384997543       -0.97555979743966       -2.58141215224996
H           -6.47929338969939       -3.21881729947602       -2.47311981729715
H           -5.62305661324771       -4.88986139811253       -0.87665326357304
H            1.95391878057439        2.01874488342707       -1.35281883258556
H            1.83286377885439        3.76257941973757       -1.64494025193294
H            2.20156663540167        3.14759896294906       -0.02320513457432
H           -1.29118765835976       -3.66427274699878        1.28868253154356
H           -1.25651247885748       -2.34152388973128        2.45246645075625
H           -2.69547802044823       -3.37455443886792        2.33304077620983
