63
 energy: -105.890127557498 gnorm: 0.000605933945 xtb: 6.5.1 (b24c23e)
Si           0.73068046534831       -1.03928075460130       -0.28886092084549
O            1.85610327957330        0.12411422815736       -0.13249414366882
C            3.06665577884391        0.22674275805528        0.58776101352020
C            4.01284392386895       -0.90133251280561        0.24066977361269
H            3.51148436355103        1.16656201655948        0.21789546711151
C            4.75538377799104       -1.60016012669639        1.18113533941255
C            4.14382374154682       -1.23734137872167       -1.10242901962116
C            5.60219877670379       -2.62034724244837        0.78270565204653
H            4.67012994983088       -1.37391817364405        2.23174499321283
C            4.98207473820165       -2.26146832368217       -1.49844547344423
H            3.56374153220678       -0.69969979058318       -1.83819309016599
C            5.71707029392038       -2.95667675864501       -0.55385902637966
H            6.16762283178539       -3.16193706529591        1.52676454841938
H            5.05832848464240       -2.51723004341551       -2.54480185900413
H            6.37182350021190       -3.75980315137428       -0.85810225901276
C            2.77689723590546        0.40039176626030        2.08504499169728
C            1.89307407833714        1.52839930406373        2.28729213925366
H            3.71248980027838        0.58246531679661        2.61821264669856
H            2.30478930756351       -0.50736764283763        2.46577218272599
C            1.16929643743715        2.47407663719754        2.40430688829727
H            0.53962969379616        3.30098988594238        2.54351075211970
Cl           0.60818884433172       -2.32431082586030       -1.88821693855335
Cl           1.58854847951103       -2.52070366551421        1.02875560553912
O           -0.55607867667630       -0.91834347490629        0.84659969504218
O           -0.18851521021561        0.10896471289547       -1.39675932056750
C           -2.36777544782399        0.36220633500026        0.10427160903608
C           -1.46943634626988        1.50836222103014       -0.08643282015009
C            0.39372283859735        2.36355334336463       -1.28092851256790
C           -2.61975335866302       -1.96642264314466        0.57560143718645
C           -3.99390948838668       -1.89099612327233        0.28124516799584
C           -3.70512667672790        0.49129256535733       -0.13889330399538
C           -4.57294873134698       -0.63071080314208       -0.05241400238434
C           -1.74094785569397        2.73427694653751        0.45723534646371
C           -0.89810635622617        3.84181588520072        0.18410551072685
C            0.19126257038458        3.63942604974792       -0.70916153232030
H           -4.09778777971837        1.44637625895054       -0.44748601418611
C           -5.93859412173572       -0.53307816399859       -0.31473221609831
H           -2.58539288962057        2.84789777359869        1.11717713684075
C           -1.10764089645498        5.10064279377744        0.75317832430206
C            1.03744415707363        4.73049387030536       -0.98854690291222
C            1.44385445983907        2.10312897529031       -2.30279537183094
N           -1.86534441519276       -0.83712648381546        0.49409220550843
N           -0.41387676940628        1.34768652234369       -0.92253385759294
C           -1.92969681928589       -3.22099299524334        0.97629238894418
C           -4.84233362546254       -3.02115013760627        0.30029742066169
C           -6.74522777515435       -1.65486645715053       -0.26545847458444
C           -6.18636681053366       -2.89453002270118        0.03408335478266
H           -4.43388909281859       -3.99411410171406        0.51575402053473
H           -6.35633384642300        0.43157020496898       -0.56155458974107
H           -7.80181085323376       -1.57211977699649       -0.46759796581238
H           -6.81680363355602       -3.77095328888657        0.05590502401180
C           -0.25943001444281        6.15186128354897        0.46026094279750
C            0.81069359468793        5.95987942040312       -0.40771509244383
H            1.87595355414765        4.60052128635838       -1.65223694399327
H           -1.93971028453900        5.23869782119653        1.42790778125844
H           -0.42563798651356        7.12050856690135        0.90635344469085
H            1.47258682282394        6.78378565552806       -0.62875748777469
H           -1.05020282397322       -2.99807492931350        1.57617020737568
H           -2.59229460647316       -3.86610247320209        1.54593927606282
H           -1.58863970458160       -3.76371426314478        0.09171527116566
H            2.43658003036891        2.17227710977511       -1.85971987675072
H            1.31857298483698        1.10419462963842       -2.70997995635033
H            1.37427856899754        2.83203844962163       -3.10971158631421
