63
 energy: -105.892415299212 gnorm: 0.000609538614 xtb: 6.5.1 (b24c23e)
Si           0.70988361246933       -1.16439894700354       -0.39681337580027
O            1.82043710908110       -0.05966154291486        0.05070056924626
C            2.93636475743067       -0.20674426293939        0.89687515899258
C            4.03917097870446       -0.99898394529161        0.24255382746998
H            2.62051515649909       -0.71392058103229        1.81593248787698
C            4.22410195260805       -0.94914185950986       -1.13102159085029
C            4.89601524861034       -1.76870997277030        1.01726032263136
C            5.24642696127421       -1.66679552575251       -1.72558573278727
H            3.54957084841976       -0.36283150666974       -1.73637564316134
C            5.92261719043708       -2.47950076328687        0.42334759817443
H            4.74628487607299       -1.82106990113836        2.08577063882087
C            6.09989913324670       -2.43027897656001       -0.94911154807480
H            5.37369784375684       -1.63030186839173       -2.79737312617235
H            6.58091537240617       -3.08096135143128        1.03257559687276
H            6.89748260044264       -2.99193707204113       -1.41257625239186
C            3.45021055584536        1.20104062437923        1.25548002528472
C            2.42501645026733        1.97875537257128        1.91589641748467
H            4.31633800396338        1.09600171319929        1.91369014710537
H            3.76752319799628        1.71086890469318        0.34208975367834
C            1.54887987617834        2.59261996344061        2.45163221540896
H            0.79880317693819        3.14821390804974        2.92932811555744
Cl           0.74658997159992       -2.25416534396924       -2.13806811248637
Cl           1.43818518556324       -2.79370127143500        0.81927718273394
O           -0.66839518653984       -1.13958725270438        0.63189370513783
O           -0.07795821187299        0.11302682368084       -1.44573593328728
C           -2.36874801936911        0.29531723968779       -0.08873922086118
C           -1.41991387610029        1.41763565792734       -0.09379394538597
C            0.52477171642516        2.33620941838979       -1.09771610493405
C           -2.74291255472588       -2.05672980296741        0.09477516371862
C           -4.09060137899958       -1.88370298723960       -0.27230763363105
C           -3.68022815170384        0.51292084118372       -0.40196305086516
C           -4.59665357415352       -0.56927476736936       -0.49510566240249
C           -1.68864201607925        2.58997090407541        0.55894970899393
C           -0.80584459017070        3.69417778613324        0.44433489686648
C            0.31772571085890        3.55639634148978       -0.41801137315895
H           -4.01218655365257        1.51352252403702       -0.62585755120363
C           -5.93829333699857       -0.38092207607313       -0.82312537989639
H           -2.56774110152701        2.66412761760491        1.17803297915716
C           -1.01437416283818        4.89350664186092        1.12956550674291
C            1.19365318952883        4.65085096743838       -0.55475829333675
C            1.61771793544767        2.14609059569215       -2.08986875345850
N           -1.94144067459311       -0.96213735466749        0.19385120364851
N           -0.31745105010507        1.30926723236022       -0.87614690494681
C           -2.14394890346640       -3.38574897069171        0.38970721083665
C           -4.98062505973921       -2.96984478118278       -0.42957896011117
C           -6.78919582653921       -1.46377877085984       -0.94710583158998
C           -6.29940855473102       -2.75328795798701       -0.75760703963669
H           -4.62277011775512       -3.97721986778969       -0.29928272394890
H           -6.30239232914520        0.62304071513467       -0.98250026189559
H           -7.82721298291618       -1.31110091813962       -1.19854743314391
H           -6.96401571918883       -3.59674772413398       -0.87120435905944
C           -0.13344757406690        5.94763548541912        0.98022724941715
C            0.96691382568833        5.81984393028247        0.13851308643090
H            2.05487105194657        4.56976946818609       -1.19668770199346
H           -1.87219284910288        4.98333939259236        1.77968140353624
H           -0.29827224228292        6.86964038050176        1.51657505287853
H            1.65220380910859        6.64673320807664        0.02785270236695
H           -1.23076666309948       -3.27770395518118        0.96886135605328
H           -2.84102465585325       -4.00836483232398        0.94486867441354
H           -1.88556079575106       -3.89804116451933       -0.53905553205682
H            2.59027246048904        2.18062496060446       -1.60217513443645
H            1.50722902741214        1.18152809802859       -2.57640274128391
H            1.58367992634857        2.93290715923397       -2.84290404928089
