63
 energy: -105.890676237426 gnorm: 0.000742826280 xtb: 6.5.1 (b24c23e)
Si           0.34296746479680       -1.68649059616980        0.92232323127559
O           -0.91420867374291       -2.19797113261630        0.04196795107909
C           -1.35990958084047       -1.92870469067898       -1.27236489632329
C           -2.68598431311119       -1.21674152900569       -1.19146502790231
H           -0.63245188769648       -1.29351017577030       -1.78244740765121
C           -3.69627278384340       -1.72138364388960       -0.38224142386522
C           -2.90386733446910       -0.04101839535947       -1.89671151372233
C           -4.91088237152716       -1.06462438808020       -0.29216692472496
H           -3.51509038894937       -2.62156028962386        0.18600350627565
C           -4.12009235115640        0.61285105028051       -1.80929451695157
H           -2.11599670434125        0.36403355188116       -2.51639131857894
C           -5.12628332854728        0.10068165879020       -1.00869353534264
H           -5.69160483689170       -1.46355676635920        0.33916650793310
H           -4.27918658174169        1.52819705652430       -2.35974350191979
H           -6.07464917238116        0.61215796120623       -0.93987305541559
C           -1.46972541073205       -3.26475066640438       -2.02774339125283
C           -0.14933702727982       -3.82134726388527       -2.23227505675379
H           -1.96133986091909       -3.09644410095306       -2.98947851608593
H           -2.06815156966967       -3.95914016316213       -1.43411909091986
C            0.96865062043688       -4.22675925485163       -2.36617550299817
H            1.93412276412547       -4.61799891606808       -2.48884204136431
Cl          -0.39922531268685       -2.77778613159426        2.57723031954879
Cl           2.26446760778990       -2.39290132034472        1.16040878333060
O            0.93668153557906       -0.67877830584497       -0.59076315652344
O            0.18223328639862       -0.19747582936107        1.77560436815183
C            1.63159248439327        1.39352920805913        0.11078799186382
C            0.20914825716609        1.66743534068365        0.37655487049288
C           -1.79803480018684        1.02493967505171        1.49869900675948
C            3.17898577547469       -0.11463415724429       -0.87727102357873
C            4.22959510222429        0.80112708657150       -0.64568222011028
C            2.60237024463443        2.33219656243554        0.31599156543345
C            3.95070869976920        2.05101572303349       -0.02458992581002
C           -0.41636883954579        2.72383411920423       -0.21810612107741
C           -1.80539871181287        2.95536558338392       -0.00988992096026
C           -2.49541723487512        2.07454501054507        0.87286445028960
H            2.34132752061352        3.28061147673180        0.75615392806586
C            4.98654830250812        2.95869941459026        0.21055194628846
H            0.14222887367486        3.36812500056136       -0.87753598615932
C           -2.48971463225902        3.99151162843972       -0.64036099614177
C           -3.87482102184785        2.29213967157038        1.08213515008537
C           -2.43610724776469        0.10316702522518        2.47522241951049
N            1.94065128183534        0.19334182262281       -0.44588277364064
N           -0.48029822523076        0.84971331323569        1.21077841376469
C            3.37608647650081       -1.38617880976306       -1.62431167173490
C            5.56180134012641        0.51755896309041       -1.00813723946228
C            6.28258526471950        2.65052109146222       -0.15268381156718
C            6.56336075487609        1.42949834789216       -0.76002211504594
H            5.79954214347464       -0.42686959508051       -1.46811830505600
H            4.75835929313905        3.90225099606572        0.68311429797537
H            7.07849009168963        3.35462307307565        0.03555781199027
H            7.57971550220897        1.19360411336606       -1.03781045134992
C           -3.84230112633455        4.17992685107460       -0.41411332764901
C           -4.52421262572501        3.32719608098815        0.44789713125850
H           -4.42485826222259        1.63513319317912        1.73425047210390
H           -1.95040530929416        4.64694890822134       -1.30816934135916
H           -4.36560960076993        4.98571743770741       -0.90550897816079
H           -5.57952864320784        3.47763064510035        0.62083121720769
H            2.41632270006138       -1.85972532763302       -1.81534408148826
H            3.87692118596132       -1.18888200571175       -2.57185052939242
H            3.98360361598070       -2.07782405670178       -1.04230172588971
H           -3.09652196442306       -0.59661022359784        1.96049203920835
H           -1.68749557222325       -0.47673566539890        3.00778445023476
H           -3.02681588190668        0.66580775930051        3.19606459379928
