63
 energy: -105.892267995286 gnorm: 0.000498113243 xtb: 6.5.1 (b24c23e)
Si           0.49026290698484       -1.27479702264369       -0.15752226456345
O            1.71027128883233       -0.23783520038560        0.14078951275774
C            2.82624303756295       -0.37576554410839        0.98605947428942
C            3.88845343707199       -1.25885571680935        0.38187386758687
H            2.50069673742255       -0.80780438944034        1.93974100022205
C            3.99221627375353       -1.41451081271350       -0.99198325801147
C            4.79017874913443       -1.91388668955124        1.21062156141889
C            4.97845924928691       -2.22092384676276       -1.53205169573227
H            3.28341956499583       -0.92015484077778       -1.63846227238628
C            5.78051845895205       -2.71275713223055        0.67024447519396
H            4.70350780486424       -1.80674509985562        2.28233330915022
C            5.87664518998750       -2.86845997801217       -0.70271722474997
H            5.04112968506487       -2.34489735251392       -2.60305913727432
H            6.47379633956086       -3.22302879775482        1.32260157954270
H            6.64545373462577       -3.49947871201692       -1.12362576942556
C            3.39323422417881        1.03331427245155        1.24890543348719
C            2.41428539971019        1.86567967080971        1.91308733361497
H            4.28458840604848        0.94007464982185        1.87407713860845
H            3.67915352951401        1.49050870933488        0.29816444115627
C            1.57266883229146        2.51611367209603        2.46078651456869
H            0.85356490503947        3.10589890496458        2.94480947926346
Cl           0.36225407747819       -2.53736047350793       -1.77295458808415
Cl           1.10712037891545       -2.82916290979116        1.20664806626795
O           -0.83573150122145       -1.00551074267765        0.90022618316051
O           -0.21143011430684       -0.04100099537465       -1.31837761776249
C           -2.39292376920415        0.54454731820843        0.09513826263417
C           -1.32283595487614        1.54132605842413       -0.05711525053405
C            0.66076820090666        2.11522118158769       -1.22856438322857
C           -3.02162870559366       -1.71997850209063        0.52227249500200
C           -4.35483469136511       -1.42726165093605        0.17978916713870
C           -3.68307953250770        0.88214865474215       -0.19911676969168
C           -4.71859592966822       -0.09086231255994       -0.15906076015633
C           -1.41441161561522        2.79321361067149        0.48699123878756
C           -0.40715110446038        3.76023049931901        0.23548459786129
C            0.64511693302178        3.40445798330956       -0.65413151034153
H           -3.90892813449377        1.88880868185692       -0.51102213820711
C           -6.04202212049544        0.21741755869838       -0.46945539751374
H           -2.24562193997385        3.03400463370445        1.12951070177290
C           -0.42689767522536        5.03079857373988        0.81532594713100
C            1.64722260286947        4.35780034829897       -0.92067216971032
C            1.65902088506695        1.69896525867944       -2.25125928791259
N           -2.09843509621307       -0.72150867853945        0.48855577321243
N           -0.28537785294053        1.22630277456360       -0.87126563250769
C           -2.56973187504774       -3.07804573215858        0.92806642679601
C           -5.36576979714808       -2.41413891422208        0.15855522752585
C           -7.01233639313369       -0.76794371561391       -0.46242426387534
C           -6.66342453607206       -2.08046879274173       -0.15544912166836
H           -5.11730445365785       -3.43781234710089        0.38279539252724
H           -6.29783424277961        1.23618320656949       -0.71972795895488
H           -8.03517752148793       -0.52234064943662       -0.70236659249118
H           -7.42206283832506       -2.84885234187617       -0.16523149884158
C            0.57333121146735        5.94300874746316        0.53889599925241
C            1.60688551396738        5.60035826865805       -0.32710731708721
H            2.45928333037758        4.10896970558372       -1.58362345719569
H           -1.23338769962156        5.28870178928688        1.48589124408287
H            0.55415173835946        6.92091426599648        0.99515006931449
H            2.38717232056537        6.31672722432645       -0.53625472523336
H           -1.60041875101954       -3.03431351331877        1.41682312382596
H           -3.28539184602484       -3.53312654855607        1.60909861429557
H           -2.47116650302422       -3.72057324204593        0.05119763833786
H            2.64727421354496        1.58708357613832       -1.80724198778207
H            1.36607625883045        0.74420269550751       -2.67944058635529
H            1.72031077524997        2.44437370331084       -3.04336265251143
