63
 energy: -105.884815429851 gnorm: 0.000927287148 xtb: 6.5.1 (b24c23e)
Si           0.39902578962819       -1.12424778308651        0.40780541698505
O            1.65624604537954       -1.97166040858033       -0.20969783603183
C            3.03632799000543       -1.96955753456197        0.03637052124550
C            3.77857309929728       -1.20564226535801       -1.03095739539400
H            3.23083383666640       -1.51769652934082        1.01774869625348
C            3.25579501455290       -1.09628999364237       -2.31212266051459
C            5.00637652040306       -0.62214026515604       -0.74385837184880
C            3.94698782781103       -0.40363546419585       -3.29092042246354
H            2.29772152374745       -1.54459383838549       -2.52564992016828
C            5.69933585419381        0.06367299418710       -1.72490459809944
H            5.41458050754111       -0.70370537425086        0.25356264987892
C            5.17005643045743        0.17609052535116       -3.00003281910930
H            3.53060363615124       -0.31893817258896       -4.28406038846153
H            6.65346196541754        0.51444497391627       -1.49380120757734
H            5.71047870625380        0.71464870388078       -3.76467238839241
C            3.51634991166824       -3.43627680333019        0.05830074302537
C            2.93274218769397       -4.14223916624159        1.17767739781278
H            4.60658819396727       -3.45685064817230        0.13055654868667
H            3.20943111448438       -3.91431872995432       -0.87529513538137
C            2.42409739978503       -4.68453246354526        2.11488065341167
H            1.98324251691456       -5.17726835828541        2.92880859721099
Cl           1.29161430448069       -0.61704670079776        2.23950030989763
Cl          -0.83063905847325       -2.42765680791252       -0.68316192744584
O            0.44366780429728        0.26340671524105       -0.60366198536365
O           -1.08604762841140       -0.49838226078069        1.30319729376661
C           -1.19909432397682        1.82808249143818       -0.00539335825332
C           -2.26130143111407        0.82172876211669       -0.17560202392311
C           -3.21949244794791       -1.18522495674005        0.66490011730880
C            1.12269991777019        2.38539440085476        0.08608707118708
C            0.81235961973933        3.68982170615896        0.50937937296427
C           -1.54604394501317        3.10105469661569        0.34541013830359
C           -0.55438489648158        4.08411483399680        0.61553140060453
C           -3.34152946620460        1.05116543832335       -0.97922157436382
C           -4.40923141146341        0.11753084907558       -1.03230539791242
C           -4.34052487432809       -1.01655236848313       -0.17516418994822
H           -2.58760053172951        3.34963850765428        0.46735903869162
C           -0.88448494503030        5.38080842900230        1.00214979990094
H           -3.37127221490019        1.93801910359759       -1.59091638164585
C           -5.51154191183559        0.28981925866104       -1.87257802370912
C           -5.40057107945337       -1.94546840808964       -0.20920909365610
C           -3.10106003216163       -2.30347147552836        1.63768262883073
N            0.11030514855875        1.50762842702568       -0.16253070926091
N           -2.21638379291446       -0.28906473405918        0.60356836519328
C            2.50605412455221        1.87960334291032       -0.11680966515523
C            1.79889553613208        4.64576363291972        0.84240753434635
C            0.10652763805018        6.29920787168417        1.30035262033686
C            1.44292163362578        5.91857647551303        1.22630550598848
H            2.84101400278669        4.37612900568619        0.80882663546120
H           -1.92588600203679        5.65740852967182        1.07104656640523
H           -0.15555966367494        7.30231943280725        1.59853437451030
H            2.21406226687917        6.63207155130949        1.47640578539438
C           -6.53599782287319       -0.63620499383478       -1.88173589159136
C           -6.47276919193489       -1.75174971736850       -1.05063752401512
H           -5.36210438271781       -2.82125867892837        0.41639688215133
H           -5.54933747551321        1.15583988261274       -2.51623861743460
H           -7.38410730880683       -0.49778796383568       -2.53474650688424
H           -7.27410637020825       -2.47519431670919       -1.06835388394656
H            2.52762485356764        1.16832490100327       -0.93938523568869
H            3.19447421818082        2.68808165340132       -0.33503963262609
H            2.84874774967017        1.35535423083048        0.77691504865275
H           -2.91134082054943       -3.23758504590674        1.11021548974735
H           -2.26963328881198       -2.11942057010274        2.31225592721946
H           -4.01806657174837       -2.40292052969258        2.21572463489663
