63
 energy: -105.889276922432 gnorm: 0.000460400602 xtb: 6.5.1 (b24c23e)
Si           0.90397006375127       -0.49618020976114        1.29946099801569
O            1.41374708697305       -1.73538140544755        0.39232217875478
C            1.94494186072892       -1.77558478086738       -0.91299214947381
C            3.39375645099275       -1.36142488495584       -0.90060488355730
H            1.37131678060740       -1.09999657276943       -1.55598657563579
C            4.19803356214489       -1.68410242963680        0.18399639137762
C            3.93495467150001       -0.65202977867822       -1.96424305054739
C            5.52587698794223       -1.29769959043992        0.20629445606366
H            3.77014037992838       -2.22196107416030        1.01620076676540
C            5.26487923367299       -0.27034837895604       -1.94284630128107
H            3.31056342685215       -0.39661443026355       -2.80959756713820
C            6.06202427074696       -0.59172272911886       -0.85724333894702
H            6.14192644867184       -1.54754012012782        1.05704108593622
H            5.67806679164485        0.28406161377587       -2.77292600705308
H            7.09849531677333       -0.28877417860019       -0.83933121128991
C            1.78374753977939       -3.21749042606565       -1.42876699163195
C            0.38576078986461       -3.51061171873226       -1.66007959807549
H            2.34543132181082       -3.33169649501009       -2.35936558330757
H            2.18845176919143       -3.90202519069056       -0.67988725965240
C           -0.78380257087255       -3.68996525898269       -1.84107545995632
H           -1.80462217152885       -3.87026991855083       -2.00335653711054
Cl           1.95154380439411        1.14689147855876        1.98175673525790
Cl           1.22412243098177       -1.61465771090810        3.07126810012613
O            0.50976896919778        0.45691924430836       -0.31430504754392
O           -0.76125883670432       -0.39983835658344        1.68237704907007
C           -1.42685726932045        1.66542528607633       -0.00223312426977
C           -2.13913105351372        0.37931769457891       -0.03590169321297
C           -2.29117828079381       -1.88162777633178        0.72528610223712
C            0.63396972349314        2.77795195917230       -0.40036542913613
C            0.00197318401481        4.03062439341887       -0.23093149528042
C           -2.09244024107117        2.85217138160313        0.13469172341703
C           -1.39022887202536        4.08182066091439        0.05869108428105
C           -3.18506777930162        0.19731249941213       -0.89406784068070
C           -3.82908894954410       -1.06656628628616       -0.99772150499822
C           -3.34140214668355       -2.12727343619522       -0.17772388726764
H           -3.15438510516174        2.84732882021262        0.31778599318957
C           -2.02146926759675        5.31625078968247        0.23198243653737
H           -3.49652680493579        1.00920556757488       -1.53082046471652
C           -4.87956211421615       -1.29185914676413       -1.88518739799749
C           -3.94248153975862       -3.39940757285698       -0.32041351043061
C           -1.72988495892850       -2.90898764739586        1.64017429972574
N           -0.08713632586360        1.65211283911284       -0.23134867356697
N           -1.74118824992827       -0.63792269865881        0.76802018176917
C            2.06025997429469        2.65582747536624       -0.80883280874838
C            0.70787453279917        5.24547233583031       -0.33560224691976
C           -1.30217884177891        6.49029945054848        0.12554246195990
C            0.06012427504332        6.44820494655681       -0.15719966074388
H            1.76482073492901        5.23235669808899       -0.54232755758949
H           -3.07833398004394        5.33735983843736        0.45156977510824
H           -1.79526918509841        7.44044088839941        0.26269966544171
H            0.61694198315297        7.36992468857518       -0.23566869408774
C           -5.45641068536695       -2.54537015469001       -1.98967231720699
C           -4.97679773565816       -3.59270797995491       -1.20833490809173
H           -3.58140848920476       -4.23016802759675        0.26287601460246
H           -5.23489092615255       -0.47416590430887       -2.49435589146273
H           -6.26943871604023       -2.71244888296666       -2.67895013755598
H           -5.41982917017322       -4.57341463579207       -1.30169427910966
H            2.30520737181440        1.61730071948091       -1.01292609022093
H            2.24547761316799        3.25127897483210       -1.70251989290238
H            2.71689892126067        3.00481479324971       -0.01326813970168
H           -0.92489147473082       -3.45138668968635        1.13948310064009
H           -1.30398936653621       -2.44269647487287        2.52531806477622
H           -2.49190116358659       -3.61871808411464        1.94757254303749
