63
 energy: -105.884395957572 gnorm: 0.000808021628 xtb: 6.5.1 (b24c23e)
Si           0.69222250757022       -0.60428249879193        0.49138240068603
O            2.23432220225419       -0.65429337243764       -0.08554811182301
C            3.21785723401917       -1.64818317991182       -0.01023195839348
C            4.43310267273754       -1.17862948085298       -0.77029375231031
H            2.82411860385629       -2.57257686978587       -0.45832615352774
C            4.87637285605042        0.12864586204797       -0.61806979867860
C            5.13538973088884       -2.04278528892720       -1.59807075791421
C            6.00264190619454        0.56723790827044       -1.28995502944370
H            4.32423958380190        0.79772777874893        0.02410093109467
C            6.26672366318187       -1.60514668001699       -2.26464214620854
H            4.79301338621107       -3.06045344639020       -1.72147054129527
C            6.70184610135833       -0.29968509562316       -2.11284965522864
H            6.33834166169601        1.58702166603285       -1.16883092820041
H            6.80773103950690       -2.28424596174643       -2.90746409475435
H            7.58304605238815        0.04143055258111       -2.63630221483806
C            3.62226776879429       -1.94209987743342        1.45164128636091
C            2.59138060396689       -2.67205539985329        2.15313510588551
H            4.54665986074864       -2.52596648495829        1.44752329780873
H            3.80116337683156       -0.99048952872538        1.95784519043688
C            1.71176511878121       -3.27688766072976        2.69434840922243
H            0.96022851995295       -3.81692674046076        3.18752727499103
Cl           1.20653681448625        0.38615262881536        2.25633509006428
Cl           0.14631962315125       -2.48064103638209       -0.27937914330781
O            0.20031108254152        0.47355519077036       -0.74015731634151
O           -0.99282999395808       -0.46790815069669        1.28738494791178
C           -1.81731376476540        1.53832799896366       -0.26936650137603
C           -2.49280017048478        0.23079284344365       -0.31839459635421
C           -2.73441910569668       -1.90337034225348        0.70075234368292
C            0.22736374256114        2.77044958769771       -0.31344690671206
C           -0.47175274556073        3.96308815127611       -0.05132199800374
C           -2.53979030895058        2.67592962120309       -0.05200783780130
C           -1.89259733818153        3.93813765875582        0.06096027983690
C           -3.56870313618597        0.01172051989122       -1.13157528906547
C           -4.25295212605290       -1.23136691374896       -1.09946779836119
C           -3.82172237867833       -2.19958519618173       -0.14937516387297
H           -3.60792231006141        2.60997332337108        0.07546126872987
C           -2.59545425174836        5.11762325378307        0.29671723148973
H           -3.88359113431704        0.78228679672154       -1.81612961256803
C           -5.32647415394366       -1.51589457968189       -1.94620089496340
C           -4.50036702545127       -3.43414355419175       -0.09863942213278
C           -2.28588786638506       -2.81961929958173        1.78371647109388
N           -0.47243755118262        1.61210974289615       -0.43268038537418
N           -2.08813555087089       -0.72983856746060        0.55286332603549
C            1.70571279996956        2.71892422163555       -0.47422847543954
C            0.18517056650434        5.20342356353732        0.10524879402280
C           -1.92419591038579        6.32055602218477        0.43094496772180
C           -0.53609072310983        6.35254769896055        0.33993619935037
H            1.25960401638822        5.24896790389482        0.04663407827632
H           -3.67161081515526        5.08030432049965        0.37675806852497
H           -2.47552309132986        7.23013569466224        0.61240248082317
H           -0.01613519866867        7.29188704868975        0.45631019344794
C           -5.97295076642553       -2.73441418847297       -1.87154362855376
C           -5.55383675078505       -3.68841526768320       -0.94844162775526
H           -4.18162290059240       -4.19004223275541        0.59929486564718
H           -5.64138638764178       -0.77058497473764       -2.66112424334610
H           -6.80074751435513       -2.94826490322265       -2.53015015315378
H           -6.05981623654165       -4.64106112661493       -0.89959090742386
H            2.01357587207029        1.74759034074932       -0.84954890820942
H            2.04313529416952        3.48994617349838       -1.16509183055908
H            2.18837495797458        2.88032296631178        0.49076998807688
H           -1.77827610078818       -3.68524564545465        1.35897978079600
H           -1.58734683071083       -2.30105198294445        2.43488965099337
H           -3.13951108163827       -3.16085051118512        2.36723986027870
