63
 energy: -105.889668202217 gnorm: 0.000411696805 xtb: 6.5.1 (b24c23e)
Si           0.08207849254770       -1.09647807175317        1.36840201527603
O           -0.74706587779622       -2.16768300217453        0.47647839845235
C           -0.71548447223681       -2.44735340840975       -0.90328290139338
C            0.57807844143229       -3.10922679411888       -1.29892312548280
H           -0.82544765274141       -1.51069796270693       -1.46330174399411
C            1.24427956883228       -3.94009540564935       -0.40905871002731
C            1.11700225451802       -2.88946493407975       -2.56020183365657
C            2.44207262197297       -4.53131190358515       -0.77004994536336
H            0.82674506570859       -4.10639944566329        0.57211932058218
C            2.31038208360014       -3.48824969869830       -2.92333922274044
H            0.60161842007903       -2.24031120958058       -3.25437735466055
C            2.97717481491954       -4.30698356840668       -2.02704285431033
H            2.95773881019392       -5.16808897744393       -0.06720048441122
H            2.72396202913566       -3.30925672147863       -3.90519745488239
H            3.91253224130973       -4.76750362057586       -2.30855657890459
C           -1.92052534043362       -3.35829573035440       -1.20855185536946
C           -3.14465486924608       -2.58785171258108       -1.19316830416730
H           -1.78795195707748       -3.81795850770408       -2.19130521414743
H           -1.96182409950287       -4.14132642437790       -0.44843546282875
C           -4.11448293657031       -1.88654085662046       -1.18768215476064
H           -4.98058980470400       -1.29497598197958       -1.18834076844553
Cl           2.03882683929559       -1.07940297471936        2.03700279128196
Cl          -0.65200908195679       -2.00579331993243        3.13367386707705
O            0.65171115758545       -0.28107053115009       -0.25134400520791
O           -0.68745325353218        0.38185278872447        1.78373449406765
C            0.62248201619056        2.00495442720090        0.01863333611638
C           -0.84538920027662        1.89670325054270        0.01669118476767
C           -2.80277248620723        0.84741114730065        0.89876678166144
C            2.67235178613845        0.87301079737910       -0.38380006238933
C            3.38051742140968        2.08696910133467       -0.23778236754818
C            1.25536254812913        3.21123777460194        0.12548837004744
C            2.66916013306116        3.28857720393476        0.03663035518185
C           -1.58884796302111        2.62634889995082       -0.86491073965090
C           -3.00212506566713        2.47158593765844       -0.92512692978692
C           -3.60411042292525        1.54411375994181       -0.02476453203496
H            0.67496526429991        4.10280887978226        0.29751105975575
C            3.36355908940698        4.49139033830275        0.18708921084252
H           -1.09400221633617        3.29640453648644       -1.54895032781421
C           -3.78725764159580        3.17277747702804       -1.83776133925257
C           -5.00318733680945        1.36100945878619       -0.10353644160250
C           -3.34917536368624       -0.11123820223605        1.89410011364831
N            1.33724693726574        0.86973364381419       -0.19983458958261
N           -1.45810037447897        1.05163422719985        0.88301369315536
C            3.33933780140673       -0.39673576882580       -0.77927517040410
C            4.78389221541000        2.15233856924859       -0.34967096489954
C            4.73955952868685        4.52321601366717        0.07387952098456
C            5.44267686367553        3.35173696964667       -0.19312405039203
H            5.34560691166544        1.25404531034215       -0.54336945278098
H            2.80848616628292        5.39364594891176        0.39556428188248
H            5.27041182814185        5.45507896995213        0.19424636919889
H            6.51872836314140        3.38335609738453       -0.27620958994848
C           -5.15597898314513        2.97424100998772       -1.88655338005143
C           -5.75319578075069        2.06511326764165       -1.01868749608906
H           -5.48721588160254        0.66183762645938        0.55813477646578
H           -3.31196236665159        3.87217901963143       -2.50931189941342
H           -5.75761529907158        3.52011956449725       -2.59659270961852
H           -6.82118910286712        1.90924244727744       -1.06393729198873
H            2.59589390691788       -1.15770794157070       -0.99881125763938
H            3.95757837518489       -0.23646215811484       -1.66182272393742
H            3.97027560984554       -0.76515431218888        0.02841422545333
H           -3.51319666706018       -1.08430969873541        1.42578986621590
H           -2.65060628157761       -0.25609570311569        2.71359208950267
H           -4.29388682786797        0.24571908390560        2.29617116996086
