63
 energy: -131.228893508210 gnorm: 0.000388918763 xtb: 6.5.1 (b24c23e)
Si           0.63595933606414        0.74633346879771        1.57051963828469
O            1.34863216485023        0.86697545949291        0.14351452634193
C            1.72001357650197        1.96822680563046       -0.69292335272829
C            0.65247140454480        3.02874312727600       -0.65819286370914
H            2.65207741294151        2.37408375437615       -0.27803730391465
C           -0.51952788531928        2.89346456238611       -1.39220250177508
C            0.80800602762788        4.12328571811427        0.18318757712818
C           -1.51691580694047        3.84674779074608       -1.28832903301529
H           -0.65445642544149        2.04120184427606       -2.03993887227398
C           -0.19091639096895        5.07499377514081        0.28480626362561
H            1.71417984163853        4.22710132107031        0.76339191842344
C           -1.35524593802330        4.93720408232118       -0.45074677743788
H           -2.42575729964027        3.73582299967206       -1.85914296005717
H           -0.05963429667100        5.92161039102786        0.94200831600624
H           -2.13728422043174        5.67710052475246       -0.36937935669458
C            1.98110430648556        1.40007681350835       -2.09308489393196
C            3.24908154945702        0.70414587919789       -2.12545547627196
H            1.99587971370620        2.22138156719770       -2.81338338840048
H            1.17459212007558        0.71027634771494       -2.35441894491312
C            4.31601231286115        0.16361647265370       -2.09717071552029
H            5.24273232174006       -0.32635717735471       -2.09840985059069
Cl          -1.29621347770891        1.34492430803670        1.55147940179003
Cl           1.61424490320682        1.62913983163486        3.06711626878711
O           -0.89048158617083       -0.31150379842455       -2.11417373580580
O            0.60653162085381       -0.87172469697652        1.85976367128005
C           -1.10230579419414       -1.51821913684843       -0.19687468207081
C            0.31505326289700       -1.86976001192858       -0.28160904153831
C            2.30431085254569       -2.28099759833654        0.98534120048346
C           -2.93435057687384       -0.36021077167787       -1.11502476556940
C           -3.78053988430129       -0.76585628032152       -0.05275081265349
C           -1.86898723329540       -1.93807711992720        0.85430242679198
C           -3.22139949620228       -1.57989335192542        0.96958251933671
C            0.95881634400931       -2.22515475180495       -1.42098904846503
C            2.34296783557964       -2.55330629378323       -1.42326247927562
C            3.03706240711805       -2.55986206851199       -0.17367778083218
H           -1.41768423310379       -2.56085193226457        1.61138716514435
H            0.41801191018350       -2.25364969342305       -2.35317630765767
N           -1.63838402207896       -0.70823851974171       -1.18966525969649
N            0.97490809534456       -1.89425498159652        0.93707448926474
C           -4.01661746233864       -2.00299748692966        2.05017754570376
C           -5.33239297783322       -1.63672352062830        2.12211284329606
H           -5.94586407016877       -1.95852467991945        2.94940541405581
C           -5.89074282245763       -0.83807316258579        1.11478245547003
H           -6.93023591491422       -0.55587803845280        1.17912566890222
H           -3.56408786772101       -2.61586861868654        2.81460437032992
C            3.01934654376978       -2.87575274882284       -2.59904798338459
C            4.35770606667826       -3.20051859168646       -2.57068180422330
H            4.87537893220530       -3.45730943389905       -3.48179075668402
C            5.04926152913058       -3.18512073512634       -1.35617696775449
H            2.47720047346270       -2.86303161388960       -3.53218247397397
H            6.10258940460788       -3.42398872240809       -1.34241443129229
C            2.87050818701581       -2.39381562749921        2.36344083241422
C           -3.53414413285924        0.49797095612538       -2.20534209394178
C           -5.14155437973571       -0.40897809058144        0.05073647784354
H           -5.61037976877824        0.20384207022652       -0.69976679879563
C            4.41738697359659       -2.86749579403782       -0.18061326328999
H            4.98065904075174       -2.84408710033138        0.73711315296688
F           -4.05468206139183        1.63784224788315       -1.70519457995459
F           -4.56616545502986       -0.14378926759976       -2.80037230440040
F           -2.73349923600336        0.87327587912148       -3.19203203302520
F            1.93000367999318       -2.50864221455958        3.30903328667592
F            3.66019378610578       -3.47599794848629        2.51780407144202
F            3.63895677904516       -1.33865941741117        2.71579919373826
