63
 energy: -131.216729931852 gnorm: 0.000327919828 xtb: 6.5.1 (b24c23e)
Si          -0.44195250102625       -1.08077274333222       -0.67410131899774
O           -1.79843249247938       -1.70787576459647       -0.09045379976090
C           -2.97423429539622       -2.19882132301579       -0.70186004966719
C           -4.13776464342908       -2.03220363498395        0.24172193967903
H           -3.15489434764916       -1.62721300436965       -1.62112691404303
C           -3.94802900339280       -2.08564210298784        1.61499540834521
C           -5.41764623635375       -1.85041505415639       -0.26569915305447
C           -5.02653469214077       -1.95000187301568        2.47137013274748
H           -2.94992812345111       -2.20955732094741        2.00507652353585
C           -6.49548526213217       -1.72588876238971        0.59196205125913
H           -5.56599642521237       -1.79995988016285       -1.33488369149973
C           -6.30168432947966       -1.77419313384596        1.96249790524667
H           -4.86950907953815       -1.98115249763103        3.53943924244742
H           -7.48804588094624       -1.58379098970643        0.19023414212940
H           -7.14324145182795       -1.66983658916220        2.63149585851400
C           -2.78802441007336       -3.68544213230022       -1.06235691432698
C           -1.78754716634256       -3.84028600287424       -2.09596514839016
H           -3.74409997093570       -4.08811674125339       -1.40519807332198
H           -2.47689954558844       -4.22624243764437       -0.16477965228906
C           -0.94278511542382       -3.90319460856578       -2.94133114064540
H           -0.20336995965977       -3.98473570124824       -3.68066693810123
Cl          -0.77066209020794       -0.29135884548280       -2.47518630381631
Cl           0.98099146832032       -2.45291156615080       -0.36505490148245
O           -0.03594045703853        0.02820522249656        0.51093516161738
O            1.86691439020970        0.22263903343546       -1.47603308769888
C            1.22028674250507        1.97865822574347        0.28453931791541
C            2.40237883824608        1.12050454518420        0.51531857339789
C            3.72585548783778       -0.59080378400947       -0.40885511907108
C           -1.16426041482879        2.11566657149447        0.19860497090370
C           -1.09637049109354        3.42140329988569       -0.33684103963553
C            1.33267718592093        3.28897688529797       -0.05079194562153
C            0.18165363744816        4.04585202383279       -0.43977014451856
C            3.20241014535890        1.21360833167830        1.61043305487493
C            4.32990198597593        0.37593327406046        1.74851372619895
C            4.60050818071327       -0.55486071454045        0.70700725838637
H            2.30813849554455        3.74457770464050       -0.10014668275913
H            2.96451994359340        1.92920236660243        2.38205234776770
N           -0.00185299061681        1.39770401952290        0.41295305037724
N            2.66293521220043        0.22596928909370       -0.49898705547998
C            0.28329120167393        5.34391837588423       -0.92668582229810
C           -0.84669619537389        6.03685900141003       -1.32419429084204
H           -0.75983110359735        7.04583394887136       -1.69598394097439
C           -2.09212038957070        5.42319175854477       -1.25374468386661
H           -2.97063872727931        5.95672524949425       -1.58327152131749
H            1.25787382022709        5.80369895494108       -0.99378656511792
C            5.17217927673144        0.44082847261401        2.87043321256180
C            6.25877989364589       -0.38846971516994        2.97019328166051
H            6.90455033092495       -0.34049443997139        3.83328698385067
C            6.53355127121906       -1.30209151951940        1.94700006716852
H            4.94410412370941        1.15372526563920        3.64825843538475
H            7.39209896534914       -1.95025236533100        2.03130851857671
C            4.03480395523561       -1.53704811953146       -1.54489195654893
C           -2.44253748512238        1.51122608488592        0.66918705143863
C           -2.22565786321226        4.13766667975935       -0.77446272980486
H           -3.19949386071975        3.67818066635063       -0.75255486332601
C            5.73031806151404       -1.38911961137102        0.83833601046347
H            5.97505665028520       -2.10463579702402        0.07266746553252
F           -3.17276595917526        0.92538756496255       -0.30904053620667
F           -3.26728116807128        2.43217390439868        1.21227885047296
F           -2.27725640870008        0.59259359449788        1.62600746900822
F            3.19811625654180       -1.54028947823039       -2.56848405900115
F            5.25351776832439       -1.24898061928956       -2.07026239401942
F            4.12299624783851       -2.81263844143307       -1.12429057397343
