63
 energy: -131.216787128509 gnorm: 0.000835004683 xtb: 6.5.1 (b24c23e)
Si          -0.45204867421910       -1.08988165344090       -0.58731310191829
O           -1.77550062618205       -1.75401600950762        0.02719412482839
C           -2.98190679240732       -2.22793818047051       -0.53933528906471
C           -4.10175515527398       -2.02136227246244        0.44775233813502
H           -3.18298309702209       -1.66499268294024       -1.45925068182150
C           -3.87816074172365       -2.20862531784025        1.80480105713866
C           -5.36614741988295       -1.65596431592613        0.00670084237591
C           -4.90760000291265       -2.02761070451254        2.71089895268165
H           -2.88842440299272       -2.47151169109467        2.14457826686197
C           -6.39623636594937       -1.48308188248069        0.91393833659237
H           -5.53888873499016       -1.49815808131551       -1.04807616372548
C           -6.16874679716129       -1.66804782218109        2.26734947397995
H           -4.72392410972153       -2.16581895540026        3.76623163578373
H           -7.37679668172853       -1.19501475075554        0.56438766268292
H           -6.97208496071669       -1.52554204652458        2.97517201157938
C           -2.83446868509035       -3.72202982307659       -0.88322909079850
C           -1.84986364939025       -3.91187552327896       -1.92618457002815
H           -3.80405848846848       -4.10676242635609       -1.20848950375901
H           -2.52311250759184       -4.25922495354561        0.01634426187343
C           -1.01134171495672       -4.00352824160363       -2.77505034895014
H           -0.28139180856255       -4.11242832751356       -3.51960776858495
Cl          -0.82430530176498       -0.34854740639906       -2.40004048439909
Cl           1.00806284778104       -2.41744552447942       -0.26656788073389
O           -0.06295960004065        0.05888163460016        0.56642198160228
O            1.81175335413467        0.25819742409723       -1.43117223103340
C            1.14563109408247        2.03494476378858        0.30736272305205
C            2.35368663120513        1.21309537801680        0.53243185418709
C            3.71470805759055       -0.47311245218054       -0.38216824723482
C           -1.24097820612727        2.11466710531502        0.22741507070223
C           -1.20555739406541        3.41826484212032       -0.31720780415051
C            1.22548023859669        3.34700329156201       -0.03291483803953
C            0.05638910407867        4.07405094957791       -0.42327224543352
C            3.17551738565697        1.36058731982179        1.60563871910812
C            4.33790351059672        0.57069648093121        1.73355765558825
C            4.61633740199484       -0.37599907852130        0.70844869185556
H            2.18984599484000        3.82503321490360       -0.08773787251874
H            2.92951590317493        2.08501385280109        2.36626494907475
N           -0.06115133552007        1.42560779711818        0.44276440516042
N            2.62350402941301        0.30631223910288       -0.46828876701288
C            0.12618533860538        5.37178788408798       -0.91664517458021
C           -1.02029981343798        6.03393230668707       -1.31941539455272
H           -0.95819292798369        7.04275517068920       -1.69649227490659
C           -2.24967118231864        5.38893406810127       -1.24815767361290
H           -3.14076293053621        5.89776920034492       -1.58298373698996
H            1.08903476321773        5.85548946954473       -0.98505474823227
C            5.20899799713711        0.70022292007422        2.82750052898648
C            6.33236697090596       -0.08011732048117        2.91523860701224
H            7.00149460289633        0.01926865540100        3.75592289931442
C            6.61419037540312       -1.00971855006974        1.90867407484391
H            4.97474988832121        1.42447020597311        3.59293777577097
H            7.50148069918563       -1.61925634566546        1.98292116092432
C            4.02769303846188       -1.43967204669854       -1.49992889671649
C           -2.50546251634477        1.48455745298722        0.70107963049860
C           -2.35155251615572        4.10318968957801       -0.76131386599125
H           -3.31364585586179        3.61953241878342       -0.73900465901371
C            5.78236815681528       -1.16050999562011        0.82804677793453
H            6.03456076648884       -1.88632026801703        0.07458226872277
F           -3.22001501598325        0.87665032184278       -0.27599778175562
F           -3.35253468085028        2.39062468489598        1.23531815582442
F           -2.32359124736387        0.57613077352835        1.66414511371431
F            3.16351114602071       -1.50531158329596       -2.49811679086122
F            5.21974714603190       -1.12381605157913       -2.06840804033920
F            4.17479449865765       -2.69819623104706       -1.04371608163298
