63
 energy: -131.229585180138 gnorm: 0.000540010171 xtb: 6.5.1 (b24c23e)
Si          -0.06806077199211       -0.82045837586480        1.65766567046879
O           -0.55356840584349       -1.04113257528920        0.15104821620052
C           -1.21664834380085       -2.09894123691305       -0.54917377036682
C           -2.53025162723076       -1.53243276460775       -1.03080487126562
H           -1.40967788329766       -2.91043651757894        0.16399335704164
C           -2.65464255592372       -0.89225595187488       -2.25648026218271
C           -3.62866684229445       -1.59181686263643       -0.18038178899113
C           -3.87431492650683       -0.36230608310766       -2.64054403935732
H           -1.80304654032893       -0.79729968497044       -2.91078346407864
C           -4.84054590793945       -1.04424784078651       -0.55925875224393
H           -3.53185631654056       -2.06906977695189        0.78442864066895
C           -4.96864642169131       -0.43871136243970       -1.79733573006686
H           -3.96833596059918        0.11517490037497       -3.60415983449077
H           -5.68506158090970       -1.09550475029089        0.11125700520623
H           -5.91746525844479       -0.02274111556175       -2.10142423499082
C           -0.28709798567733       -2.60151442326046       -1.65577812685415
C            0.90097731123635       -3.19368616636752       -1.07830029655844
H           -0.81799138051279       -3.33558375390614       -2.26517350121348
H            0.01588949187929       -1.76042719519268       -2.28497454684931
C            1.88240994398729       -3.63025987909372       -0.55113960295316
H            2.75373058871941       -4.02451976841866       -0.12106443418970
Cl          -1.23584696359544       -1.72172368467723        3.00332361727619
Cl           1.86384610596744       -1.28460635721995        1.93939163750097
O            0.82581184347126        0.23600566157468       -2.37505513047223
O           -0.09802509350177        0.81968658657159        1.83491107271728
C            1.27194390359724        1.37190097477517       -0.45054286815199
C           -0.14353462568709        1.73379010225074       -0.35957837789460
C           -2.01756739379116        2.01866089872290        1.10819652527960
C            2.93485588270129        0.10733385421409       -1.53821733025840
C            3.91772846559060        0.50863679973676       -0.59929693821427
C            2.17303002811466        1.77918637505742        0.49282285302457
C            3.51860303556155        1.37967211365669        0.45057497799464
C           -0.90966952819781        2.10084891056370       -1.41662220978056
C           -2.30074821252149        2.37114703025333       -1.27513627287061
C           -2.87390159706810        2.27539234147842        0.02919199093297
H            1.83769472212804        2.42475080662870        1.28994728850071
H           -0.46661883215382        2.16818819156893       -2.39645122107718
N            1.66569205091727        0.55079159356960       -1.50178086374843
N           -0.67126177803246        1.73317046039819        0.92112361011927
C            4.45461359454377        1.80598136039754        1.40999344305239
C            5.75562057291535        1.39088932067128        1.33497237528909
H            6.47649583224938        1.71303655173221        2.07040841859111
C            6.15906816868747        0.54460389789695        0.29333723134671
H            7.18997130713188        0.23068509355227        0.23626164729798
H            4.12142362378184        2.46030858716176        2.20080861155125
C           -3.09861082653710        2.71568282893557       -2.36349921806230
C           -4.44798494104430        2.94784441187842       -2.19847517857100
H           -5.06027880972783        3.22556075302057       -3.04222762193145
C           -5.02434449508353        2.80653726533825       -0.93543514877795
H           -2.64172310757907        2.79585840497768       -3.33834357087562
H           -6.08554910087214        2.96437625490431       -0.81492494409112
C           -2.48330229138935        2.08874093064088        2.52402460874091
C            3.35173102703471       -0.84185360280663       -2.63995829029085
C            5.27003396385842        0.10994846912740       -0.65436445707099
H            5.62359160408280       -0.53265557458942       -1.44217736342577
C           -4.26689051642007        2.47268853672964        0.15979608136666
H           -4.74178537930209        2.35731617408518        1.11948964366947
F            3.95167792734231       -1.93845642824338       -2.13624310819527
F            4.27119245156349       -0.26353401418450       -3.44856889344858
F            2.39790830460303       -1.29424765975892       -3.43995075537069
F           -1.49428088544880        2.19464238774938        3.41718459197048
F           -3.28099185222026        3.15333323992691        2.75372430389393
F           -3.21667281191947        1.01225933649947        2.89600159952206
