63
 energy: -131.221637914782 gnorm: 0.000835106466 xtb: 6.5.1 (b24c23e)
Si          -0.23675111164577       -1.48670636662013        1.66920446053033
O            1.32116281216877       -1.10556375994979        1.65157907513545
C            2.16783313578312       -0.68292127554230        0.58759029145159
C            2.49511759260563       -1.83172520226655       -0.32832130692588
H            1.64336125222533        0.08671597593046        0.01663159448253
C            2.91416726945056       -3.04505378745261        0.20118319963924
C            2.36389492895857       -1.68574973827815       -1.70257927845944
C            3.20376846194649       -4.10490707643861       -0.63845477382750
H            2.99348033229939       -3.15912156257880        1.27232090793783
C            2.66086515366586       -2.74768624912690       -2.53904941003717
H            2.02451281580463       -0.74667663658843       -2.11669633474372
C            3.08085333487961       -3.95605681053202       -2.00963636879520
H            3.52492889386510       -5.04813187826481       -0.22210574203189
H            2.55706423174468       -2.63054635602877       -3.60710357178217
H            3.30769815654141       -4.78418946868203       -2.66445531364035
C            3.43237639743860       -0.07307060918942        1.20933334602381
C            3.10240026418418        1.08936055621586        2.00556151902894
H            4.11817416340745        0.21035547059802        0.40683501639572
H            3.91406265985283       -0.82150644772745        1.84223080349963
C            2.77517649710139        2.04124618599726        2.65230472944348
H            2.52531925701068        2.87409523120695        3.23823154766997
Cl          -0.72890057803608       -2.74814193081210        0.16986044778165
Cl          -0.52077149689393       -2.15921458385927        3.50744658979499
O           -1.17876975952104       -0.13931437277118        1.54041087354657
O            0.90796589306010        1.32652357993279       -2.06058495676688
C           -1.34577792570998        0.78536617105122       -0.64208769927271
C           -0.41127372560581        1.84433442757171       -0.27383937569002
C            1.58173681810738        3.03105152139538       -0.71704556083457
C           -3.10589226919850       -0.59236782626324        0.21603612770864
C           -3.39082552335126       -1.10823540402782       -1.05118389187226
C           -1.62903406492206        0.36350266141016       -1.90265004432826
C           -2.60534687134274       -0.63810927060938       -2.14946031677772
C           -0.62233858636412        2.59988938983908        0.84972235403709
C            0.25387191722710        3.62787552209804        1.22686452031871
C            1.39633157028742        3.86283461900158        0.41378289327867
H           -1.10623262536568        0.79396030416299       -2.74140554077053
H           -1.49561352683919        2.40288293415311        1.45175913071129
N           -2.03625004006868        0.24766398818839        0.44578458370730
N            0.71362769275156        2.06497458568638       -1.06440377649106
C           -2.83475652472500       -1.14360342245439       -3.43145393694723
C           -3.81404345560745       -2.08548263409114       -3.64572962237595
H           -3.98774217305610       -2.47444528712986       -4.63690668655016
C           -4.59263331222998       -2.54130071775660       -2.57505075061917
H           -5.35730134240789       -3.28181579898874       -2.75460702261239
H           -2.22647866435284       -0.78420271585442       -4.24767251429673
C            0.02935321842883        4.41664485192697        2.37123140939079
C            0.90525521179438        5.41335883529893        2.70341975222230
H            0.73880818676753        6.01798548196270        3.58181791045236
C            2.02904819161233        5.65423160491263        1.89949049907854
H           -0.84147579796686        4.21275847024035        2.97517894423433
H            2.71261251923920        6.44463694682562        2.16897376393804
C            2.83356456923683        3.22776078893261       -1.54273498498858
C           -3.91422643806298       -0.92169991603441        1.43074380009496
C           -4.39835425710483       -2.06816986957612       -1.30420512801772
H           -4.99782026234492       -2.44551755856134       -0.49257985411343
C            2.27625858390625        4.90281750239399        0.78077450804434
H            3.14980372401792        5.12018554374953        0.19089695081179
F           -3.72734203781706       -2.17991915448194        1.88112127916083
F           -5.24126100673046       -0.81533853005976        1.20803399815249
F           -3.65652057734586       -0.10586498289411        2.45819280093885
F            3.02834732636141        2.40386821127924       -2.56109157055843
F            2.87864998433535        4.47394020926248       -2.06243075659463
F            3.93694393656386        3.11069063028194       -0.76983853795973
