63
 energy: -131.230286206286 gnorm: 0.000636925829 xtb: 6.5.1 (b24c23e)
Si           0.10569014798238       -0.81368601458071        1.33308107617212
O           -0.34428745168809       -0.86441696858208       -0.19417884534355
C           -0.82084450282678       -1.70444423024805       -1.23215509863068
C           -2.27186343354952       -1.38668329031021       -1.49292091232784
H           -0.22432338255345       -1.43239923146681       -2.11251467033576
C           -3.19245159301084       -1.36211974176685       -0.45371646647465
C           -2.69585505273751       -1.11150481464775       -2.78603219421509
C           -4.52124189327864       -1.07232730156747       -0.70682123720440
H           -2.87441457177610       -1.56220704824498        0.55860861118556
C           -4.02706503335149       -0.83333844354698       -3.03821104583947
H           -1.97599160831165       -1.11253085950538       -3.59072038055662
C           -4.94215095222583       -0.81436840319498       -1.99958363555204
H           -5.22760764574182       -1.05194900085574        0.10915427565495
H           -4.34998544812356       -0.62581782843833       -4.04745364396489
H           -5.98079602724134       -0.59499337039602       -2.19637998118181
C           -0.61720235005376       -3.18980849820369       -0.91078010516976
C            0.79325054369830       -3.48717760886061       -0.77230776333231
H           -1.04068029873217       -3.77930624478273       -1.72760059003545
H           -1.14340097097424       -3.43903215313137        0.01451814247104
C            1.96947323971774       -3.67245975473721       -0.65823380678487
H            2.99929160882914       -3.84845085936608       -0.56639981158939
Cl          -0.95373350100009       -1.93244036884479        2.60750185693256
Cl           2.07560456861530       -1.14150458664880        1.56934380221116
O            0.88185954566716        0.51574066825220       -2.49920521334432
O           -0.07520202437964        0.78326423327047        1.70797594450460
C            1.22804586823039        1.62686889003244       -0.53638638743205
C           -0.21345640401131        1.85040059129637       -0.42039414818162
C           -2.05425372652693        1.94308042681654        1.10644352007680
C            2.95379613976765        0.41033985567841       -1.57607297029457
C            3.91189334451028        0.88550041893126       -0.64714787213247
C            2.09754569015667        2.08276720639125        0.41361687305895
C            3.46587788506351        1.76673962352633        0.37507433702230
C           -1.04873715772774        2.12218399134857       -1.45328172963267
C           -2.45769252545405        2.21387225639462       -1.26760719331148
C           -2.97124568802254        2.10378921397641        0.06045521368540
H            1.71714470504619        2.69915875273958        1.21377097524719
H           -0.64674994508845        2.24788384324112       -2.44476423802830
N            1.67753241208662        0.83408841581606       -1.58810312717958
N           -0.70020653099176        1.75730634943997        0.87562195244972
C            4.37699751392273        2.26578397547703        1.32293433621463
C            5.69737720149618        1.91408745902783        1.26116883641147
H            6.39890232077232        2.29179011127890        1.98883062677363
C            6.14665282656596        1.06246641320880        0.24286928689254
H            7.19308289524905        0.80337217317255        0.19363267293610
H            4.01003148568136        2.92541750962174        2.09415323168255
C           -3.33054961242700        2.40497029029701       -2.33697209708309
C           -4.68962069732553        2.49004846379847       -2.12566982911481
H           -5.36074332182163        2.64429190849719       -2.95602239112595
C           -5.19967360789095        2.37210363777670       -0.83106958237785
H           -2.92262961459787        2.48152059227134       -3.33330005761014
H           -6.26606871038325        2.43085658841858       -0.67316454042431
C           -2.45965751742694        1.96377221265287        2.54325755657657
C            3.38414845599656       -0.61340974149243       -2.60175984754479
C            5.28273238156318        0.55600199760769       -0.69211065093224
H            5.66900577804978       -0.08301609103218       -1.46771511602732
C           -4.37057838596919        2.17916328980259        0.24472295240031
H           -4.79157263984818        2.07444804132148        1.23059657306271
F            4.06046291162343       -1.62265970716180       -2.01452490006616
F            4.23520556243624       -0.08517723989793       -3.50892765986158
F            2.41770145094409       -1.20224368018750       -3.29246536569258
F           -1.43712655808146        2.14614709851541        3.38406884695521
F           -3.33149067689770        2.95617000585726        2.82199500313571
F           -3.08070942160757        0.82737257594491        2.93811860221337
