63
 energy: -131.229516973325 gnorm: 0.000562409151 xtb: 6.5.1 (b24c23e)
Si           0.13934389260105        0.93178615186958        1.67164654427921
O            0.57753082299821        1.03419366354695        0.13800543492981
C            1.23915182541354        2.02581046065182       -0.65427463070179
C            2.51497833152740        1.39287436260533       -1.15328494039928
H            1.48157388579252        2.87534126327193       -0.00356616770963
C            2.53994231862522        0.59466906248249       -2.28944439614175
C            3.67805274175925        1.55372205463985       -0.40942351858611
C            3.72449468278940        0.00618978295660       -2.69649366638038
H            1.63695608376723        0.42130781549096       -2.85255582950240
C            4.85533323682045        0.94720981008848       -0.80801487940504
H            3.65968352160305        2.15608941230094        0.48766595348491
C            4.88282592368629        0.18058954843326       -1.96006873237169
H            3.74089758924798       -0.59422455200213       -3.59334048412340
H            5.75145922854708        1.07789586417847       -0.22044154990001
H            5.80361461666875       -0.28342586333681       -2.28027466949755
C            0.28198634413587        2.48240752821775       -1.75760493468181
C           -0.87723324011830        3.13052928974390       -1.18189291010098
H            0.80718440577010        3.16751189094971       -2.42604344554783
H           -0.05615082363252        1.61315924541827       -2.32733335261460
C           -1.83289425425498        3.60966532669752       -0.64441310322872
H           -2.68570265348812        4.04325666187894       -0.21572783301905
Cl           1.38202172789021        1.88470410276769        2.91024882108381
Cl          -1.76686685304194        1.47029042350479        1.99050553745645
O           -0.90874719552625       -0.38275342772956       -2.24782898676315
O            0.12635295679065       -0.69384227003576        1.95841084168273
C           -1.33866963263598       -1.36046315359671       -0.23483546329224
C            0.06564684925551       -1.76794384496017       -0.16029359794608
C            1.98810519331625       -1.99416615965054        1.25398427291126
C           -2.99186144629488       -0.12998525285608       -1.37527172349536
C           -3.96227702721607       -0.43318455355087       -0.38773603557915
C           -2.22425953999528       -1.66291836141882        0.76082528558821
C           -3.55907043612900       -1.22794008784943        0.71942534288192
C            0.77412444160063       -2.25387052244965       -1.20955754341905
C            2.16028818879832       -2.56202403037563       -1.09866317658588
C            2.79045845546557       -2.37017939851706        0.16807721313019
H           -1.88640901425576       -2.25445243336623        1.59777166226400
H            0.28909774737474       -2.38744283885701       -2.16236563410541
N           -1.73529684991583       -0.60724795737931       -1.33469312698848
N            0.64359187388958       -1.68237391455043        1.09454826885289
C           -4.48150695800239       -1.55103538968989        1.73069805694496
C           -5.77426301686244       -1.11160286386717        1.65002894911013
H           -6.48463300622064       -1.35519053447017        2.42479244114793
C           -6.18327072126647       -0.34485637801028        0.55081634700397
H           -7.20848991536211       -0.01371975511695        0.48901008558042
H           -4.14519012366555       -2.14746081022372        2.56471336223415
C            2.90028757472537       -3.02894893033633       -2.18195971109398
C            4.24895376536780       -3.28729811488972       -2.05105919456301
H            4.81643882828876       -3.65912024485606       -2.88990523187166
C            4.88265529730674       -3.04991409616475       -0.83089827418351
H            2.39982865625477       -3.18214566994646       -3.12626191281817
H            5.94354639456818       -3.22810987446776       -0.73969741879798
C            2.51076320101325       -1.96705951911339        2.65107659551526
C           -3.40796458803871        0.74903300731802       -2.53404868484351
C           -5.30660340740012       -0.00944740533681       -0.44752808291899
H           -5.66423475803285        0.57347925897123       -1.27871607605763
C            4.18188831957530       -2.59695517698845        0.25959635121621
H            4.70043798247159       -2.41082995765628        1.18498314095022
F           -3.97906310225526        1.88952677763716       -2.09851567388451
F           -4.35034956961261        0.13552509619480       -3.28816990207198
F           -2.45755118379499        1.12708236080835       -3.37555753234207
F            1.55826491102123       -1.96644668050303        3.58943532989966
F            3.28294114275197       -3.03745299644464        2.93402782362103
F            3.29357535753196       -0.89096420205029        2.90517336575663
