63
 energy: -131.220274731181 gnorm: 0.000574062898 xtb: 6.5.1 (b24c23e)
Si          -0.34691034655026       -1.41918445233697       -0.39154894662847
O            1.13765851230536       -0.90479955738935       -0.07106501058335
C            2.39340389993027       -1.40983227944846        0.34952269049121
C            3.30879869094561       -1.59052494006602       -0.83502208137045
H            2.80236191087147       -0.63308539586956        1.00803147430569
C            2.90754435042459       -2.34628014387742       -1.92868459559517
C            4.56597824804646       -1.00169994480624       -0.83621391222742
C            3.75471081692684       -2.50835192812763       -3.01024813228314
H            1.92727803445123       -2.79987395560903       -1.93872247397713
C            5.41461192552030       -1.17129778651481       -1.91546618622865
H            4.87763049685965       -0.40548661722690        0.00927655624391
C            5.00999001736057       -1.92412151719883       -3.00434273845155
H            3.43264213133089       -3.09282370539003       -3.85879306289516
H            6.38949048916862       -0.70815904779925       -1.90831063156284
H            5.66999066886985       -2.05192175640860       -3.84912961136921
C            2.27151857955083       -2.71336156187860        1.15491103772440
C            1.30004872396861       -2.57462552150840        2.21881296356801
H            3.25499141391173       -2.94868792138181        1.56927209586810
H            1.96550604507841       -3.52744802868718        0.49417040119501
C            0.46301168495923       -2.42231123166208        3.06031854110981
H           -0.27950571015091       -2.33252207148652        3.79588690553404
Cl          -0.90772499525527       -0.46941692240179       -2.06808501266189
Cl          -0.60004839975468       -3.39598507533184       -0.47758539006614
O           -1.31596897725181       -0.95142217384525        0.85397175192119
O           -0.00065105701385        2.76054952035498       -1.10798316946963
C           -1.70924484574991        1.37837186883881        0.46810326803026
C           -0.32190817794771        1.63599326061351        0.84618513524802
C            1.81110195114245        2.41260418319455        0.21622296753127
C           -3.53136700310371       -0.16431418929681        0.70293915363209
C           -4.35933835120765        0.61242803337215       -0.11356512694175
C           -2.51425669904712        2.22244174124035       -0.22719295690160
C           -3.83851144995593        1.85456379817002       -0.59459145791525
C            0.17991171538026        1.16560168765870        2.02837481476424
C            1.53582377793333        1.30197341961017        2.36286581685711
C            2.38908918083309        1.93674902404620        1.41908871163887
H           -2.14049201943416        3.18553674384885       -0.53318834505176
H           -0.48428717867270        0.66309184404927        2.71378231697191
N           -2.20235652900005        0.16194656495718        0.92099922863813
N            0.49904875723165        2.30132514402270       -0.06154575236538
C           -4.63069600045642        2.67390643643684       -1.39982308313973
C           -5.91055863227395        2.29545700048563       -1.73961632165944
H           -6.51965904147063        2.93238932754504       -2.36172666521335
C           -6.42203736511951        1.07818995833133       -1.27958541240515
H           -7.42270174670555        0.78428648753234       -1.55849131031936
H           -4.21834558291164        3.60515009427807       -1.75728547505182
C            2.06378706157597        0.79805758934765        3.56603837772768
C            3.40011094147281        0.91225464625800        3.83431652932323
H            3.80963398781122        0.52048877547405        4.75234958474276
C            4.24576565761459        1.54392704997291        2.91183124091247
H            1.39526156532471        0.31201278786886        4.25873360314792
H            5.29785885458182        1.63520827259218        3.13475479054522
C            2.72655731529076        3.05865568079312       -0.79877136165225
C           -3.97119098845252       -1.40952806727853        1.40171951281721
C           -5.67430322616739        0.24794726309724       -0.48450373505776
H           -6.08473696749779       -0.69302811243248       -0.15854539672966
C            3.76131154335296        2.04798692826535        1.73293769932709
H            4.44404140870379        2.52961945578862        1.05404686665644
F           -3.97437137304990       -2.50355970954725        0.60843659849254
F           -5.22189495586349       -1.32176615012930        1.89490688099860
F           -3.19684186947408       -1.70980937939503        2.45365860487147
F            2.18885188231694        3.46566643132108       -1.93464430427252
F            3.34081610594754        4.14403325924897       -0.27126316087307
F            3.72462214255237        2.21401186572066       -1.14618229990639
