63
 energy: -131.215930428739 gnorm: 0.000410530443 xtb: 6.5.1 (b24c23e)
Si           0.62321759763825       -0.86594591542866        0.58877766977666
O            2.03442582531351       -1.35834285154558        0.00305447800422
C            2.76420073813565       -2.56473180003205        0.11652702256934
C            4.00687197040250       -2.44897126962758       -0.72962233700594
H            2.12972529084843       -3.38335567864632       -0.24998682935940
C            4.83088448950508       -1.33881711716050       -0.59686142433565
C            4.35153903421190       -3.45061952577828       -1.62596749473650
C            5.98025564607406       -1.22945960066435       -1.35802311782826
H            4.56024681317238       -0.55779196878998        0.09527863469348
C            5.50758634671396       -3.34418862179013       -2.37981819509858
H            3.71319895947074       -4.31605432433231       -1.73381597064556
C            6.32248115330796       -2.23291181321870       -2.24880879015851
H            6.61143380122976       -0.35934691762182       -1.25427315876255
H            5.76939053433642       -4.12863750914843       -3.07464922408124
H            7.22140075556717       -2.14829751281020       -2.84155684761979
C            3.14669629617133       -2.84524081163657        1.58196341415132
C            1.99730545552083       -3.25847017898972        2.35739547156010
H            3.90432581840551       -3.63313290585837        1.60026667860783
H            3.57141883733346       -1.93486994250766        2.01166956605345
C            1.01881382570210       -3.59872161004413        2.95644502257799
H            0.17002746773080       -3.89052541947128        3.49902471416050
Cl           0.89184246493275       -0.03217214916522        2.37973801461426
Cl          -0.70646541205348       -2.34584968459253        0.30967059456313
O            0.18326641304507        0.23546366111066       -0.58720874774356
O           -1.77796724322413        0.23703634150643        1.38675141285289
C           -1.28145351872473        2.04124400890441       -0.36560973538862
C           -2.37637573039764        1.07875554350080       -0.61032992280749
C           -3.57528381148979       -0.71576770288532        0.32615872572556
C            1.07099079102275        2.41915822779905       -0.21245610111578
C            0.85678585911614        3.71492308770564        0.30979221134509
C           -1.53495667096439        3.33664911250872       -0.04515459484749
C           -0.47942090319480        4.20908504230407        0.36865453036585
C           -3.17686001371745        1.10298507423549       -1.70932185794734
C           -4.24139763308310        0.18542833523009       -1.84146808607118
C           -4.45069498891455       -0.74946638847246       -0.78936577136071
H           -2.55292398409810        3.69018980277352       -0.02676839696512
H           -2.99031705056387        1.82831413309521       -2.48582250815155
N           -0.00525346828557        1.58552803819687       -0.45046418512470
N           -2.57266917158117        0.17525992183198        0.40935170771052
C           -0.72555446914946        5.49479753920241        0.83653877476318
C            0.31690890483069        6.30113722202873        1.25877325105703
H            0.11828690758236        7.29980558444906        1.61512944241014
C            1.61863165159519        5.81418675808019        1.23359260605181
H            2.42888118242673        6.43565445740666        1.58330298367504
H           -1.74287024111725        5.85491221982112        0.86911715072781
C           -5.08549452544356        0.18154970685944       -2.96363997230264
C           -6.11713956062799       -0.71694224965228       -3.05223152880731
H           -6.76514373935836       -0.72029960041283       -3.91500543402149
C           -6.33307565862141       -1.63306651198279       -2.01772277043183
H           -4.90437798517729        0.89850547819468       -3.75002660696241
H           -7.14952578096761       -2.33466221373312       -2.09210848252371
C           -3.81604206308326       -1.67257462577855        1.46907262565234
C            2.41935869422581        1.95412063920483       -0.64365844673473
C            1.89449677139655        4.54421228102152        0.77352386842022
H            2.90958536087182        4.18491530023160        0.78756786923725
C           -5.52446733598643       -1.65583324972654       -0.90931950483542
H           -5.72312381991683       -2.37599367193152       -0.13468007496874
F            3.18475080709931        1.46879483843910        0.36080151298644
F            3.14934140861366        2.95953860682643       -1.17682416986031
F            2.39169466243290        1.01395703669955       -1.59191764653045
F           -2.97777031388527       -1.61415276739951        2.48981484656219
F           -5.04982524665931       -1.46718858979163        1.99689345982947
F           -3.81662419570446       -2.95470529853488        1.05548167443934
