63
 energy: -131.219753116341 gnorm: 0.000247850492 xtb: 6.5.1 (b24c23e)
Si           0.46431692303753       -1.84794193488875       -0.19966539968819
O           -1.10748689249335       -1.49774437543650       -0.21118499279847
C           -2.14750971595263       -1.98818080445486       -1.05661000771889
C           -2.79104883539657       -0.77480731082772       -1.68842361348188
H           -1.68786537350581       -2.59365721482322       -1.85003429483383
C           -1.97771738095654        0.02885743833229       -2.48320835382584
C           -4.11597477831945       -0.41144532261218       -1.49894413002051
C           -2.47974507349317        1.16827974639573       -3.08126291411043
H           -0.94442606505053       -0.25136719274743       -2.62960430617120
C           -4.61905783282334        0.72863271590400       -2.10510801495745
H           -4.76713481333671       -1.00907052000542       -0.88222780700074
C           -3.80721946485376        1.51868549429460       -2.89782828369795
H           -1.83793903952290        1.77806597367297       -3.69990904962659
H           -5.65432333332318        0.99724758443577       -1.95694980320467
H           -4.20571127347513        2.40272887026590       -3.37268704539811
C           -3.07455574019784       -2.89556543621293       -0.24344698834372
C           -2.32372651464982       -4.02423642793321        0.26848684817472
H           -3.87828887160307       -3.25242236746847       -0.89210411050444
H           -3.50135445488574       -2.34652356461758        0.59649521601978
C           -1.65083695232475       -4.92158623710201        0.68377401179710
H           -1.08383638107110       -5.71999521238047        1.05852347420154
Cl           1.21597010408015       -2.52480105547664        1.50378647559253
Cl           0.76758668183294       -3.20744063438822       -1.66820081315367
O            1.22107506718589       -0.53288038901247       -0.92481717862582
O            0.13550545576269        0.08991408235037        1.49402022029066
C            1.62960560510761        1.56772960803815        0.02119199406473
C            0.17264944353817        1.79957220571760        0.03283275113851
C           -1.83920001599772        1.18728719172268        1.08338781736612
C            3.45794964045927        0.10478887047121       -0.45922768501417
C            4.35771941122576        0.94926928858110        0.23022463546230
C            2.48314998523775        2.49699519010754        0.53143664806919
C            3.87001115203022        2.20370964331891        0.70621830364165
C           -0.43926403552580        2.80305018704014       -0.65574108138453
C           -1.81877973032714        3.04995255136873       -0.49033351091815
C           -2.53904996960962        2.22693510684303        0.41938618424764
H            2.09279378481196        3.43783981884171        0.88364027030245
H            0.14218502160619        3.41819677677611       -1.32435247219302
N            2.10608931627738        0.39461976025597       -0.46046004476016
N           -0.52248623047866        0.98972274871431        0.89698920647695
C            4.73108176888329        3.09213838260213        1.34221772487267
C            6.06113467552850        2.76618300007488        1.53641688240448
H            6.72449189316691        3.46294982365328        2.02432312789345
C            6.53304248812245        1.52826317880637        1.11530206142337
H            7.56347173810386        1.26047722264777        1.29217226013893
H            4.34385440417560        4.03925361098343        1.68671867825402
C           -2.47418616229268        4.09120163262379       -1.16553382724958
C           -3.80708295476490        4.32940273737755       -0.94774269333301
H           -4.30960604518276        5.13216379075394       -1.46493564331532
C           -4.51696791717628        3.53277554753071       -0.04579566690491
H           -1.90681868338803        4.70041878288102       -1.85255869212949
H           -5.56327588229101        3.73074077369031        0.12866773691189
C           -2.57090598274449        0.34412587451663        2.09447601265442
C            3.87885015574088       -1.04550506466075       -1.31398109479821
C            5.70529463111370        0.62771779929371        0.47894537372705
H            6.09807387756222       -0.33180517320685        0.19063265951586
C           -3.90549975785312        2.50315986474264        0.62544166313337
H           -4.48599838997902        1.91804384332443        1.31731011339058
F            3.79757458245717       -2.24583544427690       -0.70219969181986
F            5.14863316402912       -0.94290419011299       -1.73919926008360
F            3.14971994720185       -1.14132796816371       -2.43770425433842
F           -1.90605126275398       -0.65440202602534        2.64581794782160
F           -3.00930711854914        1.11473461453767        3.12116496233016
F           -3.68901799214033       -0.20645046665084        1.57190546409083
