63
 energy: -131.217461131805 gnorm: 0.000617632469 xtb: 6.5.1 (b24c23e)
Si          -0.27204754844676       -1.66708501419740       -0.31132117895584
O           -1.53229675992899       -0.68942025563715       -0.53510203775376
C           -2.76373191620157       -1.01044630006233       -1.16917478382202
C           -3.64766893689058       -1.83910964266707       -0.27462287640249
H           -2.53667349705458       -1.57639249275704       -2.08137884654230
C           -3.58366079235506       -1.70650962015219        1.10489877322287
C           -4.54907176479845       -2.73539563058692       -0.83442205215186
C           -4.40866112120978       -2.46550876110221        1.91599670790040
H           -2.87569660160898       -1.02253366439862        1.54479535856474
C           -5.37764098776758       -3.48788165240991       -0.02229542403646
H           -4.59406965241348       -2.84696127286642       -1.90833022527800
C           -5.30852813835797       -3.35442813959909        1.35461665668082
H           -4.34534120689136       -2.35986390442781        2.98836258571233
H           -6.07375432088991       -4.18477026295267       -0.46496332532483
H           -5.95217342326835       -3.94679701789509        1.98780741011303
C           -3.46329905203957        0.30360515603817       -1.55654390430969
C           -2.58312509549598        1.15412484133979       -2.32787406695752
H           -4.35193208171530        0.06047214613876       -2.14417504681659
H           -3.77928474197731        0.82707099590138       -0.65387153979598
C           -1.82206038565437        1.83987998034905       -2.94563151452384
H           -1.17490119371818        2.44598032016775       -3.50530179162766
Cl          -0.01294841255976       -2.48617082018229        1.48351024792392
Cl          -0.39957683958172       -3.11861746090752       -1.70847220297824
O            1.00746089013115       -0.75512531493603       -0.86416388763578
O           -0.06070090858469        0.38515672673020        1.49897746459927
C            2.15169633846299        0.90805238411969        0.30430893075343
C            0.98052750970100        1.77821125623171        0.06921921742456
C           -1.17343200888553        2.28605904692798        0.85544516723094
C            3.17895577714747       -1.22708914193912        0.00202499997372
C            4.18885687794474       -0.90535154367034        0.93777103612152
C            3.19678257107883        1.33025203913108        1.06345640914808
C            4.22942619856017        0.42251948853990        1.45751007799372
C            0.99049178861783        2.86557790983257       -0.74709075629523
C           -0.14598476906493        3.69718883941394       -0.84667513371398
C           -1.25677199131559        3.40805256575351       -0.00730727792021
H            3.20807827673429        2.34055771493012        1.43864791117028
H            1.87315342528986        3.08481161119590       -1.32756811114812
N            2.13991119349424       -0.34173210514352       -0.21836300125812
N           -0.11726523599572        1.45339605050194        0.83252054259490
C            5.23702390649332        0.79447850212734        2.34039000220712
C            6.19888113300459       -0.11851396767543        2.73521450903311
H            6.98138271922743        0.17950239920111        3.41534255195316
C            6.14218925201248       -1.42487755492190        2.26379926758216
H            6.87677592797677       -2.14429949710342        2.59192411520623
H            5.25571632701963        1.80601240335808        2.71737136541385
C           -0.19493958927363        4.79382486053337       -1.72169023737111
C           -1.31348633280859        5.58474517120752       -1.78054653757467
H           -1.35371301979901        6.42353726917546       -2.45823221206257
C           -2.40892567371525        5.30391008534496       -0.95838451707392
H            0.66130104729074        4.99598859741012       -2.34785092771595
H           -3.28652513551332        5.92921354854677       -1.01225463169524
C           -2.25078782283310        2.07828519987268        1.88783429987279
C            3.23565718935518       -2.43510159628072       -0.87004945703972
C            5.15679208527010       -1.82316332998067        1.38536665696288
H            5.12466273709095       -2.84841250474981        1.05826945834153
C           -2.38705433583091        4.24604501022577       -0.08470812728375
H           -3.25079215600406        4.06014880316789        0.53042948744898
F            2.63911728350528       -3.52752798002325       -0.34198634030442
F            4.49903345690080       -2.81418764325616       -1.13858326415049
F            2.67286813044788       -2.24103214491938       -2.07102828881470
F           -2.05862230814392        1.09801278007093        2.75556928341271
F           -2.39413752938617        3.20093843922048        2.63369855330452
F           -3.46795775477362        1.86209209469150        1.34491647845901
