63
 energy: -131.216698232619 gnorm: 0.000299072754 xtb: 6.5.1 (b24c23e)
Si           0.21576544782790       -1.39659413704039       -0.01704350605194
O            1.54629486904157       -0.55666713264204        0.39582555250116
C            2.61256984608512       -0.98796941328731        1.22306240588730
C            3.52110218168791       -1.96253453430268        0.51873210511480
H            2.18847995487111       -1.47427591011284        2.10927854240358
C            3.63037566959872       -1.97898508894942       -0.86306287800716
C            4.27635826915422       -2.85263903461506        1.27224421888298
C            4.48022945841793       -2.87667446190815       -1.48537892537655
H            3.03737532790750       -1.30226018335537       -1.45626065173064
C            5.13047047566265       -3.74362575015330        0.65005398779463
H            4.18278556048867       -2.85285211188116        2.34872368752798
C            5.23442629015088       -3.75739838743191       -0.73115202746625
H            4.54932424444383       -2.88605839423973       -2.56269742632698
H            5.71024938465107       -4.43492395316905        1.24374074852783
H            5.89705627757308       -4.45824919079088       -1.21703677609963
C            3.40276961128147        0.25511750950750        1.67123511164739
C            2.56679557272651        1.14894757896893        2.44130632804396
H            4.24415083024002       -0.07621354688812        2.28451717151428
H            3.79487315138440        0.77317353193679        0.79490599115669
C            1.83566768305055        1.85724041876864        3.07045397593601
H            1.22305711048342        2.48390176417478        3.64601584347276
Cl          -0.03262970102997       -2.31994355632163       -1.79359310174863
Cl           0.38314274790418       -3.04613665463061        1.23616183275141
O           -1.12544377730638       -0.83351346755670        0.89580704076937
O           -0.14626015297835        0.26878338507373       -1.18062375718302
C           -2.16852236839519        1.14944470491115        0.20368627926364
C           -0.88416054446254        1.86591826507538        0.25392570370020
C            1.22045678117963        2.09712398897327       -0.77582752606018
C           -3.40163168670558       -0.88028822179981        0.37670319218415
C           -4.55387102403520       -0.27828884298240       -0.17713642563073
C           -3.29491965832928        1.81852629378651       -0.18234154853201
C           -4.51483828843990        1.12924384576137       -0.42161329019789
C           -0.70064951367190        3.00775932074272        0.98136493584592
C            0.51573748666903        3.72369468470342        0.89819732367714
C            1.50068895071751        3.26402317868286       -0.02303485215204
H           -3.23762530245216        2.87638692228479       -0.38126541538346
H           -1.48578165930203        3.35133865632557        1.63574733776566
N           -2.22754422387287       -0.17385338335103        0.47930077750223
N            0.08140826979468        1.40447950612248       -0.58436539222260
C           -5.64007501319122        1.78883004908202       -0.91478466907538
C           -6.79583251118139        1.08927605988613       -1.19712594526603
H           -7.66448491425723        1.60474488064836       -1.57533706301303
C           -6.82571449351248       -0.29006733504679       -1.01170719943385
H           -7.71718902455356       -0.84309935856192       -1.26432705818241
H           -5.58823679085550        2.85421203329556       -1.08073009056363
C            0.76062591064012        4.86691562086513        1.66913601752269
C            1.95042325027891        5.54608313503482        1.55003481431230
H            2.13861691282511        6.42251114661181        2.15048758469715
C            2.91740150390476        5.10134477297762        0.64804001127074
H            0.00087959610746        5.20162553833698        2.35939714833319
H            3.84885883041987        5.63838261060995        0.55848173489786
C            2.16796735570423        1.68834812719375       -1.87186122940163
C           -3.35131076530666       -2.26121327991548        0.97012968265814
C           -5.73420396981289       -0.96944888569372       -0.51725485892178
H           -5.79215166039574       -2.03810346925876       -0.41445278763683
C            2.70365707207634        3.98824248473245       -0.13033330682155
H            3.47389232703436        3.67611103252998       -0.81448006066324
F           -2.72607921451081       -3.15303831868372        0.18769017059649
F           -4.56785113952457       -2.77536307259707        1.21124824349548
F           -2.74025370111299       -2.27098532817534        2.16273150826362
F            1.81226065731211        0.65755443018954       -2.61837757902588
F            2.33428464929697        2.72183837080429       -2.73617286051447
F            3.40513258060108        1.41525255674209       -1.41384880122928
