69
 energy: -137.481855745648 gnorm: 0.000300373970 xtb: 6.5.1 (b24c23e)
Si           0.59875776148142       -0.89427859427767       -1.99741929939484
O           -2.20601270201646       -2.59655201962180       -0.99534361935291
C           -2.47651207216178       -2.37741319992629        0.16209910375558
C           -3.82860281206766       -2.20274189454813        0.69247727463106
H           -1.67547681657876       -2.28465755742161        0.92086378636548
C           -4.91280346091263       -2.10468207985688       -0.18111036215421
C           -4.03994171180782       -2.11572142116595        2.06818424222908
C           -6.18647401999798       -1.91336790587352        0.31479161221725
H           -4.72688832220860       -2.17063028263704       -1.24266945981303
C           -5.31790519217734       -1.93026047051869        2.55846008133911
H           -3.19812441570351       -2.18550666345690        2.74109218798655
C           -6.38916764350977       -1.82572328169369        1.68397770377163
H           -7.02426529586990       -1.82881427632550       -0.36145642943946
H           -5.48239416715866       -1.85900251731154        3.62344916783849
H           -7.38587765996751       -1.67214547224146        2.07145297872683
C            1.66032311445922       -2.46137018759734        1.51150413596548
C            1.19638004609960       -2.42931845559885        0.30784075755613
H            2.68256078372936       -2.72211865192026        1.72869163190110
H            1.03071249264469       -2.20537910711371        2.34722097219432
C            0.71260996362425       -2.40674559801087       -0.90131363124714
H            0.26233809457902       -3.31106962137192       -1.29082838897085
Cl          -1.13778847015396        0.14574152592088       -1.84844001844266
Cl           0.93891503001764       -1.28456055215951       -3.92819716020183
O           -0.22513483091940        0.11528408494763        1.70660300006526
O            1.75608732946955        0.25538158915005       -1.64901293663567
C            0.73083124752286        1.69301856985502        0.38632909597976
C            1.98980795323714        0.95090359697198        0.60065275328222
C            3.74497691662835       -0.28216090105096       -0.47556732360729
C           -1.54861194996918        1.80285985118088        0.93588578860803
C           -1.73908892393208        2.88230903997493        0.03829409915117
C            0.65127345894402        2.78211021500950       -0.43993301108048
C           -0.61852064777357        3.37417520069213       -0.68392554483737
C            2.59008453140870        0.82033690650730        1.81551649906506
C            3.73199322202864       -0.05473750183939        1.94997912755766
C            4.30281718044150       -0.62310509805275        0.77005346023971
N           -0.37118766884943        1.16642857606769        1.04014781888370
N            2.55221666587725        0.42017668320325       -0.52869903290208
C           -0.80529711328150        4.40936549180508       -1.61757602914542
C           -2.04550998252635        4.95121248874431       -1.82561707505311
H           -2.17904021298985        5.73914300527976       -2.55078993587086
C           -3.14601764205324        4.47882715581499       -1.10370953574925
H           -4.12111260525627        4.90795198111880       -1.27500868434872
H            0.03501567882736        4.76432467543135       -2.19097401586578
C            4.27099905120233       -0.38226431194456        3.19007448080705
C            5.35216518876389       -1.24026490077538        3.29664378975492
H            5.75752087748078       -1.47842052253838        4.26769639397123
C            5.90534607258025       -1.79977750976357        2.15140909789027
H            3.83457606601252        0.02399822675325        4.08774434354352
H            6.74036264322377       -2.47898032140247        2.23360197976409
C            4.34979544019680       -0.60590078315611       -1.79528588511613
C           -2.71706950035397        1.32724382932629        1.75976671518127
C           -3.00200893647857        3.46782222413743       -0.19137542639273
H           -3.87273681031238        3.11206001259156        0.33174015666157
C            5.39173738547393       -1.50833944665755        0.90800571002199
H            5.81664223233868       -1.97945601325970        0.03839947097388
F           -3.71487181895645        0.83152096128733        1.00037084120223
F           -3.26452228823758        2.36030655987937        2.44582631340875
F           -2.45548385028742        0.40892338847338        2.68085042519271
F            4.03755493938570        0.29066082987779       -2.74481046792704
F            5.69390129811522       -0.63585610951598       -1.77279722871360
F            3.97280280352349       -1.81400348096777       -2.28642975400619
C            1.88949980667909        3.32431153632432       -1.07838268390411
H            1.96926250770912        2.95416691286843       -2.10045329252459
H            1.86592513593770        4.41043581145521       -1.10350708742602
H            2.77665181226210        3.00954107311177       -0.53565360270472
C            2.05030342778802        1.54668303854780        3.00643160021265
H            1.44839676995782        0.86833677913776        3.61116286840934
H            2.86135086945093        1.93618480644222        3.61714918186331
H            1.42003974535069        2.37904508356992        2.70224227464629
