69
 energy: -137.569221206132 gnorm: 0.000493480236 xtb: 6.5.1 (b24c23e)
Si           0.75621633514673        0.66163040869205        1.51016386698379
O            1.60856911605514        0.57379094917757        0.16346874145324
C            2.32561606869484        1.51623671111498       -0.63825663260996
C            1.67326325844260        2.87061878847984       -0.57026425325624
H            3.33772396965085        1.57286719285161       -0.21626596428761
C            0.48887595507028        3.12315903849081       -1.25211188883787
C            2.22069380757563        3.86006983749753        0.23604433844726
C           -0.13354533039403        4.35249095850130       -1.13163765819202
H            0.05247980022122        2.35256248651114       -1.86793957977151
C            1.59809994164324        5.09046341184039        0.35204850491208
H            3.13643175794306        3.66467595037158        0.77600196256391
C            0.42003285261997        5.33761219133104       -0.33121206828294
H           -1.05652193751158        4.53964992018182       -1.65814821450058
H            2.03257947302476        5.85376037830996        0.98027008336017
H           -0.06829738348033        6.29611639350351       -0.23756513327574
C            2.38287353549166        0.94462004554119       -2.06093356505016
C            3.37073879765809       -0.10776974331840       -2.15271028745272
H            2.63627592939730        1.74656486346962       -2.75842696324604
H            1.39782051271831        0.54575046167505       -2.31415849742168
C            4.21719444924810       -0.95263922396603       -2.18417192294263
H            4.94610177924202       -1.70403346368741       -2.23746210441231
Cl          -0.94598395320905        1.74369409623386        1.37915954354194
Cl           1.79379263111779        1.25631641650648        3.10923318300315
O           -0.72542624066266        0.08288054359696       -1.90306419820431
O            0.25291309326400       -0.88627746636634        1.75858416996916
C           -1.52908971867057       -1.23273288393044       -0.23639031225713
C           -0.24273688670606       -1.95242605353918       -0.30739861757852
C            1.66059906735250       -2.63902786727180        0.97094784876006
C           -2.81090179652396        0.53134365570452       -1.11476192240084
C           -3.80416042523356        0.34147770593433       -0.12387544228180
C           -2.48341368373330       -1.53740725619839        0.70067447935535
C           -3.63059339753448       -0.70733009402556        0.81929687300220
C            0.22567431679476       -2.58392001098658       -1.41776183901962
C            1.55291580130038       -3.14950487412011       -1.40573273015065
C            2.27656636434170       -3.16462963061017       -0.17491787316392
N           -1.67090327136417       -0.17617491151143       -1.12137440720567
N            0.44866863476690       -1.98146052070576        0.88486537887747
C           -4.58693310288475       -0.87680234350072        1.83806631843494
C           -5.67993909925799       -0.05707535340229        1.91770862221438
H           -6.40295477769475       -0.19148193958056        2.70751611598510
C           -5.86061027551008        0.96391929905131        0.97831970968147
H           -6.72446931151569        1.60655434581958        1.04857750387384
H           -4.44360788955781       -1.64827136020841        2.57638389679868
C            2.14691410844792       -3.68174158269734       -2.54735150236299
C            3.40634150893266       -4.24662420338209       -2.49825243783033
H            3.84533145593627       -4.66342833961063       -3.39166277114696
C            4.11184601505775       -4.26829079382453       -1.29757602395938
H            1.62442535929025       -3.64741445120300       -3.48909731205342
H            5.09962936302246       -4.70398363013064       -1.26304714088964
C            2.21875910953924       -2.77709719826610        2.34511885856322
C           -3.03351910270845        1.58230873397696       -2.17392876484998
C           -4.94635601063994        1.16386386384380       -0.02059159523475
H           -5.10370302709627        1.97126780510300       -0.71452038471461
C            3.57104358551471       -3.72787385341109       -0.15671310842896
H            4.14649550135888       -3.72285097008443        0.75364386776443
F           -3.10122556264617        2.82609587629808       -1.65949378705010
F           -4.22096850387201        1.37946325416634       -2.79374419008508
F           -2.13954404274829        1.63792784042308       -3.15306001974687
F            1.29723691328811       -2.61564662850277        3.30562797288116
F            2.75210071565267       -3.99550389123857        2.57454859156791
F            3.21032914797990       -1.89878732009765        2.62249396631455
C           -0.62806729233317       -2.70361451725423       -2.63978686198007
H           -0.31897293385233       -1.96414959057925       -3.37827197578359
H           -0.53387001988649       -3.69579751618507       -3.07456941815237
H           -1.67547054743378       -2.53109287065543       -2.40411168638184
C           -2.30871985280124       -2.73331874253174        1.58063386682883
H           -1.90803938875851       -2.42664336209913        2.54660435992353
H           -3.26024910079783       -3.23304217563888        1.74126952710542
H           -1.61527116482320       -3.44305578900268        1.13862390395029
