69
 energy: -137.561282293470 gnorm: 0.000589100569 xtb: 6.5.1 (b24c23e)
Si          -0.15228719273329       -1.61903930733910       -0.30371122981891
O            1.24661420143622       -1.02153888077110        0.20985347337021
C            2.58520244583372       -1.44300403012224        0.40917254774428
C            3.34726975841230       -1.51009124558682       -0.88969429187455
H            3.02241683624844       -0.66149635367103        1.04355864253697
C            2.89953674120799       -2.29880391264149       -1.94120765352534
C            4.51682182545108       -0.77678675423132       -1.04016708798813
C            3.60498070006895       -2.34019343941085       -3.13041679201344
H            1.99366341541196       -2.87709796150752       -1.83634454205116
C            5.22536884160442       -0.82489175198976       -2.22700503677818
H            4.87003729574654       -0.16279776516555       -0.22442966217971
C            4.76819374700104       -1.60365431258209       -3.27588645157088
H            3.24368068798064       -2.95042924554839       -3.94428074644463
H            6.12998028004607       -0.24621448847440       -2.33439029962278
H            5.31607011986526       -1.63564149296466       -4.20550573393558
C            2.65811999270300       -2.77697498427988        1.16996564196116
C            1.87516682194880       -2.71627955250667        2.38557978103718
H            3.70574822306536       -2.97531644440455        1.40987542409326
H            2.28202490565832       -3.58515069406948        0.54003952879070
C            1.19899338146562       -2.62436477927041        3.36817790332810
H            0.61302069915338       -2.59486331194024        4.23770606257197
Cl          -0.61888496639720       -0.88547375525323       -2.10854116983003
Cl          -0.31508202749989       -3.60662434247059       -0.18875037189472
O           -1.21979911151993       -1.07944713141895        0.83006476056425
O           -0.07751648914530        2.12715184655450       -1.28943047498744
C           -1.75132326045205        1.22228306672354        0.50563404846116
C           -0.35138749395724        1.49625736024543        0.87571992522636
C            1.72774196192921        2.26163869792411        0.08187473120594
C           -3.46470800401039       -0.45657684734543        0.42742707044885
C           -4.29647164619849        0.38368520166612       -0.33100576696649
C           -2.59341375811757        2.14877858165304       -0.03364906127512
C           -3.86651415534671        1.72524630419099       -0.56534599391726
C            0.16079024145859        1.21061770084338        2.11510324123132
C            1.55929064135944        1.34065283287399        2.33429523917005
C            2.35506423749604        1.90119086086564        1.29842824115447
N           -2.17625079273332       -0.06186829732568        0.74910575978317
N            0.43815693311935        1.97461820814401       -0.16264042781912
C           -4.67472013148506        2.57359001554639       -1.31800866639640
C           -5.88664731377936        2.14174254462116       -1.82267740938764
H           -6.49975579078734        2.81466992469865       -2.40165130924791
C           -6.31051182694260        0.83707659192143       -1.58970431753737
H           -7.25446010830660        0.49956085728549       -1.99009361071498
H           -4.34626193996575        3.57840940791026       -1.52688896770187
C            2.18423384168769        0.90833943202690        3.51848474538485
C            3.53743047785135        1.03424804979400        3.68617193113683
H            4.00649380108377        0.68782705113638        4.59394457560343
C            4.31823303987201        1.60759446066386        2.67698980606377
H            1.59296503011719        0.44784277465973        4.29148412414291
H            5.38400596097774        1.70528226494865        2.81631179538874
C            2.54021329591597        2.93832310158127       -0.99393832930143
C           -3.85598300001604       -1.78956898992381        0.96102415798512
C           -5.53349447659285       -0.03437203411878       -0.86477642585470
H           -5.86453738591083       -1.04912342285687       -0.72328298903512
C            3.74534467021843        2.03302950169118        1.50769456102117
H            4.37455414261864        2.45069576734335        0.74033453338490
F           -3.63915009928699       -2.81209099249700        0.09811258009834
F           -5.15762650689478       -1.87151403255473        1.28932740298969
F           -3.19014356774624       -2.10967528772240        2.08382917242883
F            1.86811709866343        3.42259190918222       -2.02671632115594
F            3.20532280431539        4.00297169803500       -0.48013013333607
F            3.49571148508669        2.13040129752573       -1.50050879061823
C           -2.19987563532524        3.58980580635946       -0.09172380806037
H           -1.83855212494009        3.83152228666812       -1.09155060954063
H           -3.05073758783308        4.22551906187294        0.14125542662640
H           -1.40442457449355        3.80535276111827        0.61810583463199
C           -0.74565721171346        0.75250916699976        3.21073888026027
H           -0.71796658982792       -0.33533372384158        3.27207076806859
H           -0.43503753508342        1.16694146536297        4.16599878588473
H           -1.77158827903589        1.05392770516472        3.01797637861191
