69
 energy: -137.559330271402 gnorm: 0.000246466065 xtb: 6.5.1 (b24c23e)
Si          -0.61611716948528       -1.08882244535612       -0.55466619635274
O           -1.93879630385708       -1.70683606929140        0.10452973919882
C           -3.17389250131090       -2.15077911668526       -0.42082837243308
C           -4.26184576365552       -1.89496138343854        0.59061431288644
H           -3.38386397520435       -1.59442631941284       -1.34304891632210
C           -3.99247571536180       -1.98575906337204        1.94881789121665
C           -5.54583845568245       -1.57969746954304        0.16714889682577
C           -4.99523961522853       -1.75406107123713        2.87342703426865
H           -2.98874848240823       -2.21182265123845        2.27349564159374
C           -6.54903178648586       -1.35774897032915        1.09317062295654
H           -5.75481288091026       -1.49887791367662       -0.88984250050308
C           -6.27508403661399       -1.44258631299788        2.44802613165978
H           -4.77513354582556       -1.81423372299793        3.92907316188253
H           -7.54475588242568       -1.10861634246238        0.75681057695220
H           -7.05705335814861       -1.25949230263671        3.17032666676401
C           -3.08374993726670       -3.65344219536062       -0.74751198833168
C           -2.14925685245206       -3.88669137016414       -1.82727571146655
H           -4.07644947812432       -4.01372820028646       -1.02812309166499
H           -2.75259685875149       -4.18680736533250        0.14734586213222
C           -1.35417353871051       -4.01648222842317       -2.71213331329856
H           -0.66040081552349       -4.15982271715861       -3.48548531597676
Cl          -1.00844637965024       -0.26167448971129       -2.32806467745171
Cl           0.82516128699717       -2.46990399325367       -0.42031439664765
O           -0.08469845415523       -0.00672134220005        0.58398988704161
O            1.83834914773908        0.24430004817345       -1.61574623199279
C            1.12482110933626        1.93614399503942        0.12558003227740
C            2.29721816084668        1.07242775765640        0.42246640166296
C            3.62066492428469       -0.64223415405546       -0.49058658928808
C           -1.25705019703907        2.06565243837688        0.25242620880335
C           -1.25231183534589        3.24025241628403       -0.52229986281271
C            1.21253407315164        3.14148208953523       -0.49029222036900
C           -0.00110949726784        3.81334706440334       -0.89781548197113
C            2.99014362039183        1.09042044645242        1.59587757135757
C            4.09644957279794        0.20729669662491        1.75220777600744
C            4.42366679393224       -0.66445371474860        0.67751844700063
N           -0.07671421959262        1.39148374518712        0.50828669682494
N            2.58818543377240        0.20193494433924       -0.61030901637590
C            0.01103127164462        4.97975407612412       -1.65572673099766
C           -1.16849207836016        5.59067164158877       -2.04161918311099
H           -1.13898227619368        6.49759474309932       -2.62539453923387
C           -2.38986291994105        5.03100452209955       -1.68217553495580
H           -3.30927529882511        5.50370834436188       -1.99274363926158
H            0.95071292462454        5.41607422509025       -1.95324996198769
C            4.87280014833520        0.17643328968262        2.92438038315323
C            5.94190452794750       -0.67215651182530        3.03595300577196
H            6.53106079378598       -0.68792830923524        3.93995026899755
C            6.27582437297052       -1.51890841561225        1.97409113296309
H            4.62044892628538        0.83118335376448        3.74237493477580
H            7.12397351747352       -2.17957670646745        2.06519521326358
C            3.95384419413287       -1.57469063588706       -1.63117900267873
C           -2.48981446283160        1.54538428269362        0.90266010492973
C           -2.44040397638137        3.87478353744223       -0.93997931152180
H           -3.39530031773167        3.44298741366758       -0.69115197842768
C            5.53807226670134       -1.51940531091070        0.82045118946958
H            5.82279253022440       -2.18215236618541        0.02201327034924
F           -3.35559968711714        0.95371587543699        0.04512744009761
F           -3.21065992793962        2.52992931594853        1.49104993552214
F           -2.25102408874652        0.66280030221838        1.87595982596904
F            3.14711952659666       -1.55070669220814       -2.67777703721229
F            5.19201458329475       -1.29580000363348       -2.11638501560781
F            4.01058905921792       -2.85830121594449       -1.22938999776357
C            2.54610771040188        3.74877899533931       -0.79661520404494
H            2.70437907918508        3.77122338590932       -1.87397447177149
H            2.59167798701203        4.77020737495723       -0.42236542250627
H            3.35053751717620        3.17546706938501       -0.34389311481384
C            2.59120901748179        2.03098987956464        2.68766526117934
H            2.30577354659446        1.46809026792840        3.57455385168336
H            3.42095595450988        2.68534058174194        2.94954922370370
H            1.74791999170023        2.64179097316220        2.37919842801541
