69
 energy: -137.564400165145 gnorm: 0.000581478673 xtb: 6.5.1 (b24c23e)
Si           0.64152479974796       -1.48688388318035       -0.80966208200563
O           -0.89795791036393       -1.16910075848704       -0.47064863192846
C           -2.06208732847620       -1.97288417925639       -0.63043872681315
C           -3.13021323485356       -1.09705981989929       -1.24944391293163
H           -1.82313127809155       -2.77472501715702       -1.34568955974627
C           -2.79433814018982       -0.41176199831737       -2.41374423977669
C           -4.41337240292996       -0.96550956309661       -0.73945795580000
C           -3.72604608270204        0.37279367874934       -3.06485974366412
H           -1.79279195577351       -0.50452491629881       -2.80755067581453
C           -5.34772432236946       -0.18173015855253       -1.39690138556228
H           -4.70234646248250       -1.46741669905340        0.16919691210083
C           -5.01156048962573        0.48260170243632       -2.56178163397350
H           -3.45219336882274        0.89066241956667       -3.97190678196779
H           -6.34557854180213       -0.09561852755304       -0.99356250274939
H           -5.74661679544278        1.08219268173282       -3.07758553109982
C           -2.42334120398322       -2.61876873237334        0.71044863060466
C           -1.38558275929684       -3.54701540462440        1.10978317152534
H           -3.36399690807329       -3.16359620943920        0.60559135135694
H           -2.53218638790876       -1.84784188417805        1.47559742735520
C           -0.50708105755696       -4.30678290932697        1.39588122117125
H            0.25610330990517       -4.97033534352731        1.67353175268637
Cl           1.75762767692271       -1.85719182230558        0.80661557691855
Cl           0.75591354272409       -2.90285360497210       -2.21964593787014
O            1.17241511316075       -0.10308571548724       -1.53001577464061
O           -0.08019740503892        0.61776249275380        1.93718353948146
C            1.60195993918747        1.50980130066140        0.14554405333365
C            0.16775810210821        1.84429639307317        0.04675834140823
C           -1.92912036873035        1.63466551897801        1.08752978432569
C            3.42028830966145        0.46301165626512       -0.99454281840776
C            4.24867263633145        0.60767693805215        0.12732534658450
C            2.39680745513575        1.83635319736889        1.19931359749473
C            3.73626476585181        1.30619444624840        1.26260554164651
C           -0.35607893122587        2.54407539161395       -1.00785817602175
C           -1.76073969957305        2.75758229976768       -1.07168056307267
C           -2.55878908408872        2.31712193321208        0.01866150813949
N            2.08744832036216        0.82257906724867       -0.95056120217760
N           -0.62068582787146        1.33207705097339        1.06705792553176
C            4.53663060402808        1.43008142004015        2.39694649996770
C            5.81551711615654        0.91203092710245        2.42488768222241
H            6.42045759807754        1.01775324303046        3.31207596334852
C            6.32484883036483        0.24880582026649        1.30965321214692
H            7.32552520827387       -0.15500386384056        1.33725417743946
H            4.14927850415293        1.92304617590128        3.27359247794618
C           -2.38311565405088        3.40334894119507       -2.15602966827005
C           -3.73091791427099        3.63980338856585       -2.15432531724284
H           -4.19537794070622        4.14107233323078       -2.98956566160620
C           -4.51283334984338        3.22603925220798       -1.07132441098569
H           -1.79039784580830        3.70678643941012       -3.00313804466056
H           -5.57473484269856        3.41660426784934       -1.07491905554682
C           -2.75236948975072        1.23949465806377        2.28728849790746
C            3.87594559928196       -0.10419770238283       -2.29456915077155
C            5.56215877347180        0.09203699858673        0.17990642532897
H            5.95945518145030       -0.44876791777386       -0.66249088420315
C           -3.94652936712507        2.57046072905224       -0.01213283131948
H           -4.58012711953949        2.24191366514961        0.79324995225917
F            4.00244401997153       -1.45094027941822       -2.28981466359891
F            5.08372244155080        0.36343257426741       -2.67482186504567
F            3.04832687736876        0.19102453148493       -3.30600948663979
F           -2.09871897286584        0.72008889088599        3.31544347219313
F           -3.40318562854110        2.31589396625527        2.78937866581242
F           -3.72052861871380        0.34893655689770        1.97630636008917
C            0.55501976969243        3.08893425820899       -2.06095866017163
H            0.58547467388786        2.40529118232648       -2.90914590173998
H            0.21169912441374        4.05967088162951       -2.40736863841506
H            1.56697991327238        3.19464101755288       -1.68044852566296
C            1.88308848581376        2.71815415755557        2.29161277669621
H            1.55987501759457        2.10169563360221        3.13079333263618
H            2.65750715196408        3.40145607155172        2.63068564001868
H            1.03137282930664        3.30327575994248        1.95197978420728
