69
 energy: -137.567683745631 gnorm: 0.000402181568 xtb: 6.5.1 (b24c23e)
Si           0.59311157180315        1.49173881859499        0.75588044497696
O           -0.87292098201802        0.98660584645489        0.34778817424725
C           -2.17526481753492        1.50373352596139        0.18445853817808
C           -3.11659705869899        0.83990605622056        1.16265063907216
H           -2.47146346493798        1.26422464231958       -0.84519297701555
C           -2.67110286454241        0.41982279076054        2.40772328022536
C           -4.45949588355651        0.69999967153873        0.83541607640858
C           -3.55855545591070       -0.13086174293543        3.31520147889061
H           -1.62766292063275        0.52208627485947        2.66505701488630
C           -5.34540123176063        0.15599899339914        1.74713998079247
H           -4.80714940427485        1.01564943143863       -0.13704992522223
C           -4.89725393928728       -0.25864078193499        2.98993826204438
H           -3.20249967995486       -0.45349673505504        4.28212420040603
H           -6.38835300990291        0.05598464133581        1.48653212895232
H           -5.59008760865113       -0.68033789435157        3.70268375534972
C           -2.25558126206168        3.02824684309311        0.37216519211979
C           -1.43762024493599        3.72251602873376       -0.59815622340147
H           -3.29972759799545        3.32852493093933        0.25324812841435
H           -1.92932220003803        3.28446425831366        1.38277672016564
C           -0.74808592408374        4.25372000010683       -1.41890818953611
H           -0.15265146546507        4.74146532977172       -2.13127808698663
Cl           1.70882438064219        1.98344407888815       -0.83001593301751
Cl           0.60400836889458        2.84803521257013        2.22519288162486
O            1.23962183232174        0.16034245739189        1.48372929067988
O           -0.02134968083473       -0.82640931868691       -2.01847779348783
C            1.66705087573138       -1.51617146380153       -0.14144194942986
C            0.23906891207436       -1.86265326082271       -0.01636836272092
C           -1.85588936025187       -1.78693825532246       -1.08000764542635
C            3.48107538374288       -0.35823738771012        0.90147068314773
C            4.30036118530094       -0.56864086639273       -0.21731997021609
C            2.46427585084731       -1.91551089392721       -1.16939144614430
C            3.79384506442700       -1.36875257773951       -1.28626014382220
C           -0.28268429881852       -2.45973999318224        1.10126966213128
C           -1.68749095427878       -2.66157107995896        1.19045747796791
C           -2.48698364977713       -2.33890504606277        0.06100246036586
N            2.15452312067452       -0.74902762690553        0.89663130237230
N           -0.55157936862679       -1.46458611676544       -1.08529228258356
C            4.58904076138888       -1.57478321917505       -2.41179174257836
C            5.85812209483782       -1.03732383936103       -2.49457887777798
H            6.46011168894240       -1.20983599759976       -3.37322458984097
C            6.35899734347356       -0.26779941782719       -1.44668412436523
H            7.35028214287469        0.15360894011335       -1.51749516957143
H            4.20578197527328       -2.14877646184120       -3.23951169179902
C           -2.31076800925877       -3.17021569502460        2.34485737479625
C           -3.66328359935176       -3.37422228679424        2.38173033718021
H           -4.12951653679307       -3.76438884798315        3.27314544649491
C           -4.44829265252497       -3.06964403793512        1.26540958280499
H           -1.71597825430407       -3.38600807977203        3.21684961257469
H           -5.51453815577635       -3.22931700328901        1.30223086077560
C           -2.67561655450466       -1.52863438541881       -2.31925107544043
C            3.93699923940863        0.29901214134410        2.15742552790576
C            5.59987044521485       -0.02837669371449       -0.32832130280201
H            5.99063706115451        0.59425583636168        0.45875558626604
C           -3.87898519846414       -2.55869214029030        0.13097820557077
H           -4.51355403436162       -2.31168399973686       -0.70238629066297
F            3.98468009832061        1.65019747046471        2.08348801050762
F            5.17689782019984       -0.07922777983793        2.52864200326960
F            3.15235769351846        0.01208135316250        3.20616377056924
F           -2.00960927326406       -1.17535542325377       -3.40800881697217
F           -3.36280008096960       -2.64041795171980       -2.67247392207967
F           -3.61438580223585       -0.57384786901595       -2.12515938840845
C            0.62822582947620       -2.89644420764681        2.20359116711373
H            0.66238299183383       -2.13029134008958        2.97788712319058
H            0.28180518963137       -3.82563973868923        2.64711848295296
H            1.63932900765288       -3.04397987483381        1.83500519606280
C            1.96507725566745       -2.89859671876985       -2.17900420510560
H            1.63280008321941       -2.36657278966724       -3.07074297862948
H            2.75142515022697       -3.59685485597115       -2.45457534580899
H            1.12299006187870       -3.46533287734616       -1.78811561064241
