69
 energy: -137.569745177213 gnorm: 0.000693417138 xtb: 6.5.1 (b24c23e)
Si           0.16445242054546       -1.03725387795893        1.44420741053837
O           -0.90438411726377       -1.19420314390812        0.27228842874468
C           -1.18015077602772       -2.05243302082836       -0.82366633392869
C           -2.42261921687066       -1.53217645595934       -1.49897558520579
H           -0.33123513474943       -1.98810115181822       -1.51343736981716
C           -3.59590370989486       -1.36749990135984       -0.77409009695391
C           -2.40425092610457       -1.22381991094327       -2.85155715190499
C           -4.74717846700405       -0.93277231785838       -1.40457580925824
H           -3.60600298893800       -1.57260420466115        0.28626281079745
C           -3.55739321160309       -0.78677425549198       -3.47933037259338
H           -1.48127771706866       -1.32331177792708       -3.40232940693477
C           -4.73223072441415       -0.65141267854856       -2.75985678273698
H           -5.65796690009455       -0.81565756737221       -0.83687574471940
H           -3.53963027482623       -0.55383531706306       -4.53393123321183
H           -5.63453417470216       -0.32105235372231       -3.25266508888964
C           -1.37536770636857       -3.50379505422002       -0.36174093407312
C           -0.13141137833228       -4.08960362559302        0.08881911009221
H           -1.76849190199737       -4.08215079453467       -1.20197792282908
H           -2.10490125470958       -3.52536266479122        0.45246973143513
C            0.91452842876334       -4.53861675166236        0.45806940119876
H            1.82495013426046       -4.94910407740785        0.77801829839312
Cl          -0.35915424953159       -1.98126878601250        3.12210470588947
Cl           2.07870037388533       -1.45965760009934        0.97688945222193
O            0.73790362853469       -0.05505192232797       -2.01926866134488
O            0.14486040325756        0.58777099252992        1.74682090310007
C            1.31472825826969        1.52975435419945       -0.50119915270436
C           -0.13612942390511        1.73344889990796       -0.31711702702862
C           -1.91491930239729        1.68480902039428        1.27762341397490
C            2.95384424256713        0.27522653549077       -1.63044522211839
C            3.98162467940455        0.88301237484835       -0.86920384823785
C            2.25070143119645        2.19439157349788        0.24699877926395
C            3.62341255655307        1.85174914133018        0.10743483788942
C           -0.98426881717319        2.10641187332333       -1.31268796735953
C           -2.40427289565060        2.13532878186358       -1.06297284111006
C           -2.86412228274304        1.90870524355543        0.26933400870431
N            1.65769540743228        0.54957814785802       -1.42094807880083
N           -0.57395636170386        1.53738794567008        0.97755122317122
C            4.63153526443494        2.42181135664663        0.90717517496310
C            5.94372201658819        2.07043664771958        0.74019354291645
H            6.70698805793107        2.50960059949317        1.36399796248979
C            6.29982463154351        1.13755655366725       -0.23960807089243
H            7.33693271276841        0.86986935491792       -0.36997338572107
H            4.36341942553707        3.13091805081615        1.67269109171722
C           -3.33582976491692        2.37477604007767       -2.06960055342038
C           -4.68768889004588        2.42453601121997       -1.79201004023166
H           -5.39282508758531        2.62691842509972       -2.58300386237728
C           -5.13907880752751        2.20836687175203       -0.49288951642910
H           -3.00301175195313        2.51658990353788       -3.08454492428053
H           -6.19699004163857        2.24244510341756       -0.28012713119816
C           -2.27212080371827        1.61191916964129        2.72204462411100
C            3.33022029190159       -0.75478267061971       -2.66846379056171
C            5.34499722464921        0.55334525498165       -1.02735244012656
H            5.65095646822301       -0.17071635413820       -1.76227537139966
C           -4.25325115232972        1.94181697601532        0.52143607309199
H           -4.62422419994233        1.74751695492222        1.51375448890936
F            3.98664491851794       -1.79867907343269       -2.12461166490279
F            4.18173024844102       -0.22187280150782       -3.57882228648172
F            2.34167973888218       -1.27780634927187       -3.38128104769072
F           -1.22339008672671        1.75003174516257        3.54110160204059
F           -3.13674797047195        2.58220164294512        3.09317085081051
F           -2.87685061458287        0.45151895575410        3.06979759839257
C           -0.45374742561777        2.48716183633108       -2.65786686932113
H           -0.58627377830278        1.65490925180304       -3.34874053167481
H           -0.98133304163068        3.35578855864220       -3.04436631453861
H            0.60636424649747        2.72392405607148       -2.60791079811043
C            1.81881480356444        3.26857344563307        1.19289755647851
H            1.76377355147975        2.86706362602609        2.20429255889248
H            2.52320045741302        4.09579214150490        1.18460308738980
H            0.83643930801819        3.64760504278574        0.92730850349491
