69
 energy: -137.565467864657 gnorm: 0.000535621590 xtb: 6.5.1 (b24c23e)
Si          -0.11745579949890       -1.33223377167394        1.39443953598175
O            1.25360882063676       -0.55991724559922        1.06189144331099
C            2.58621646401815       -1.02103821358890        1.22942014083508
C            3.06301361680478       -1.80565972174315        0.03407564030316
H            2.61459058472878       -1.65900599129988        2.12274684211256
C            2.54168699786719       -1.58050550233021       -1.23171950240765
C            4.06606908025761       -2.75310500465825        0.20149575598112
C            3.01804272375433       -2.29686428811668       -2.31626086789720
H            1.75014477351131       -0.86165107250422       -1.37784304609953
C            4.54373555698925       -3.46289936386077       -0.88445726367268
H            4.46816293204681       -2.93573407322078        1.18822969550955
C            4.02057558342453       -3.23505210326390       -2.14674867443684
H            2.60107434210742       -2.11405009119783       -3.29476517516955
H            5.32238594692035       -4.19813026995764       -0.74440422227566
H            4.39245069485950       -3.79183344491606       -2.99405127139366
C            3.48663542409212        0.20417053258843        1.46536682162380
C            3.01326716226281        0.97941304793281        2.59130350414602
H            4.50480226147616       -0.14351616071247        1.65451185824707
H            3.49523016699139        0.82297354318049        0.56776466032026
C            2.57599896789341        1.59098553973813        3.52181117142435
H            2.22102470921099        2.13164651305961        4.34686514095980
Cl          -0.85293823429980       -2.32923688907904       -0.18307665213359
Cl           0.10934652845049       -2.46861785733260        3.02365313139085
O           -1.15685814550294       -0.13823000145333        1.83236308831041
O            0.15874778444825        0.67931196488076       -1.65027674214042
C           -1.89829271521743        1.05537083030077       -0.07472043419239
C           -0.68243374035175        1.87304882147853        0.08885384083390
C            1.42976404724173        2.36721961544430       -0.81579094713722
C           -3.37253093883518       -0.46355472648924        1.03223756959626
C           -4.05584305886222       -0.72326104594036       -0.16478372930003
C           -2.63330050133766        0.99575615639848       -1.21840312669764
C           -3.68824835898445        0.01900490031915       -1.32798265881109
C           -0.52068677163341        2.77117290915223        1.11169540659884
C            0.72776072028233        3.43516442369647        1.26035055289546
C            1.71446966485495        3.24828646288252        0.25510143081104
N           -2.24769552046738        0.33856509140732        1.05213421363658
N            0.32077827717666        1.60999693282847       -0.82984578812315
C           -4.34031786441890       -0.24435189834128       -2.53136437051897
C           -5.34236385104271       -1.19058885588753       -2.60464841439903
H           -5.83571675661341       -1.38114699713672       -3.54509280494959
C           -5.71376623832460       -1.90378931395323       -1.46623016821085
H           -6.49568004409040       -2.64516794730901       -1.53003713693978
H           -4.04948795178939        0.28435556581709       -3.42435652605984
C            1.02083552570434        4.26912316805320        2.35503129912382
C            2.23097605552022        4.90081524541003        2.45382328714819
H            2.44626726105918        5.53397746310926        3.30092768220510
C            3.19901103496115        4.72224659130400        1.46027410965138
H            0.28801160312275        4.39534363656522        3.13500706982779
H            4.15326240832155        5.21771453634075        1.54886823145834
C            2.39412269021167        2.26348809199287       -1.97149041125168
C           -3.75798121789628       -1.03619629120830        2.35184399516455
C           -5.08619967377256       -1.68301061331363       -0.26596102389077
H           -5.36431362589504       -2.26361998500476        0.59748023110800
C            2.95126130274662        3.91543232197636        0.38315639925311
H            3.72308906893594        3.78047992564274       -0.35566535686303
F           -3.38312349661109       -2.32566216137026        2.52007960000862
F           -5.09088489079768       -1.02500155978665        2.55889789386943
F           -3.23391440205076       -0.35721579105788        3.38163073718524
F            1.96177986753310        1.60124440110476       -3.03496471701946
F            2.70556098946937        3.49913088695045       -2.42968342553746
F            3.57326121212156        1.70297111372096       -1.62535694229514
C           -1.65307333995839        3.03938305573620        2.04945851368124
H           -1.54634370796600        2.41752247201314        2.93809916390612
H           -1.66819278542042        4.08272321539654        2.35188539496817
H           -2.60546731302447        2.79839087944657        1.58568295509058
C           -2.33942754620318        1.91660805645297       -2.35888938127442
H           -1.72617815023626        1.39733177419913       -3.09603969662149
H           -3.26045298023155        2.24616040609697       -2.83283069364444
H           -1.79331323068472        2.79445716068470       -2.02045383714747
