69
 energy: -137.570302333053 gnorm: 0.000727395855 xtb: 6.5.1 (b24c23e)
Si           0.02657427060821       -1.09575930581510        1.60019777000209
O           -1.09084502375795       -1.16879460929694        0.46341091292384
C           -1.84656649783796       -2.17732721595281       -0.19331958759885
C           -2.87800656575436       -1.48007456493102       -1.04399990550590
H           -2.34114792919564       -2.78033275053971        0.57955363289336
C           -2.47908061067751       -0.70555648568531       -2.12679627708582
C           -4.22847957940631       -1.60013240179248       -0.74831031013589
C           -3.42828329573116       -0.08680095842468       -2.91940489270610
H           -1.42852370158498       -0.58265611197972       -2.33659206599344
C           -5.17409182909272       -0.97105142200927       -1.53906879433693
H           -4.54106720513712       -2.18970485283438        0.10156139185253
C           -4.77563534821771       -0.22091308516987       -2.63117089357102
H           -3.11564777211720        0.50032471669864       -3.76992677936595
H           -6.22311456538705       -1.07005474395939       -1.30259746899648
H           -5.51390407021138        0.26204689502737       -3.25402957800589
C           -0.92444671799928       -3.07136614855816       -1.03483535517441
C           -0.18293545401916       -3.98350617620299       -0.19217577324112
H           -1.53199331034041       -3.63830637461783       -1.74407791554710
H           -0.23360710627879       -2.43461232262295       -1.59336826653261
C            0.39638528383966       -4.71336148590717        0.55882804101419
H            0.92945564221662       -5.36378632381128        1.18541144825770
Cl          -0.50065826796780       -1.95877067353927        3.32049599964530
Cl           1.88261312723246       -1.69527980227058        1.09515968289145
O            0.69877565169456       -0.11245275181007       -1.83450731383924
O            0.17906154942816        0.53648174089822        1.82299534000799
C            1.44479583130132        1.42197116560225       -0.34399848093727
C            0.01627882796973        1.77314221671214       -0.18303543341507
C           -1.85301906636110        1.68172783516696        1.30116457363492
C            2.93681843850035       -0.03650233278323       -1.42866263561931
C            4.03270851292113        0.52971117936241       -0.73264727505218
C            2.44185413949920        2.00548000361994        0.38754192001176
C            3.78078692939804        1.55608353129498        0.21776299042760
C           -0.73688988553231        2.32175973318421       -1.17206967795580
C           -2.16237440854110        2.45502295585833       -0.98875261912378
C           -2.72131751800784        2.06276410019862        0.26412060736607
N            1.68057977762024        0.39161658364540       -1.24050312216584
N           -0.49930550259146        1.51410281521305        1.06762599922224
C            4.85569205631232        2.08417888263900        0.95631768963903
C            6.13468121854252        1.64252238390779        0.74885328376376
H            6.95083701664715        2.05201954008015        1.32402744400411
C            6.38876071634639        0.66158493269027       -0.21556659391990
H            7.40149527134499        0.33090088154342       -0.38647440742630
H            4.66624765498857        2.83975227348982        1.70074289641927
C           -3.00722067625321        2.91327181736849       -1.99441359725427
C           -4.37469339020002        2.97917686694484       -1.80215426770365
H           -5.01273830016646        3.34737957435309       -2.59037692334533
C           -4.92637355318317        2.55259346925125       -0.59917945358958
H           -2.59611034863245        3.21621175979420       -2.94345494570713
H           -5.99640890897228        2.57828893785875       -0.45976568112224
C           -2.32184892878042        1.47288190680259        2.69782936565820
C            3.19077353002613       -1.18428932469868       -2.37711384719804
C            5.36533662162576        0.11329962280736       -0.94075643220483
H            5.59424308324470       -0.64044618923169       -1.67395317325635
C           -4.12311649181297        2.09654885318239        0.41812594552347
H           -4.57212702309401        1.75393584366527        1.33497738778721
F            3.87444493492189       -2.17908194258203       -1.77931971811607
F            3.96136738335571       -0.78628134274944       -3.41867834917229
F            2.12561715277461       -1.75914384064662       -2.91810555740306
F           -1.34076498464329        1.50236238411855        3.60799178631456
F           -3.19721295745444        2.42024498292184        3.09816290851247
F           -2.97099145169029        0.29632652595447        2.88101118990769
C           -0.10178039806510        2.74498910048738       -2.45922420848143
H           -0.35419013743558        2.03454712409517       -3.24563261767851
H           -0.45703426774633        3.73065878787649       -2.75243994670329
H            0.98082230340983        2.78502323375106       -2.36791476356823
C            2.11457478363802        3.10774811781962        1.34263444771842
H            2.13156023609976        2.72277819384248        2.36184410797962
H            2.83877829273844        3.91489927519714        1.26384868895953
H            1.12413681162128        3.50909979547878        1.14892345342382
