69
 energy: -137.559666201683 gnorm: 0.000610927645 xtb: 6.5.1 (b24c23e)
Si          -0.72518945211712       -0.59060315444085       -0.45094053389967
O           -2.12518172663090       -1.11928137263630        0.10970309192970
C           -2.89399470983817       -2.27958969895996       -0.13907076375246
C           -4.06074154027703       -2.30678321572452        0.81549105932416
H           -2.25332678554060       -3.15797456860190        0.01881703448513
C           -4.72534420479721       -1.13176247476598        1.13938848958582
C           -4.50555442168901       -3.51238742179834        1.34141067232260
C           -5.81823824906097       -1.16359986041287        1.98720974221136
H           -4.37298514089837       -0.19587964483206        0.73644503207143
C           -5.60432276129113       -3.54227296205763        2.18182644824015
H           -3.98961376330445       -4.42869714433530        1.09116779984623
C           -6.26179657495922       -2.36774169746862        2.50694970099990
H           -6.32596572937382       -0.24490000182283        2.24018465093070
H           -5.94540509597038       -4.48396677927080        2.58603627360694
H           -7.11713239302498       -2.39204423385273        3.16584286508723
C           -3.40921669395989       -2.29113191069496       -1.59119660786907
C           -2.34023323367253       -2.56789811060359       -2.52607441968766
H           -4.18388815425939       -3.05691969195711       -1.68244164768467
H           -3.85072881609954       -1.31537230814480       -1.80896406929799
C           -1.42361117953074       -2.81031935236539       -3.25627724807272
H           -0.63124666660425       -3.01051214234736       -3.91383542911759
Cl          -0.88040047018989        0.48009302745407       -2.13646919260737
Cl           0.62236611482265       -2.08564289272159       -0.53064039147246
O           -0.21581991352584        0.38356005150044        0.77369388308472
O            2.42315586243456        0.47459251191262       -1.88060258083720
C            1.43069693818786        1.91642817974834        0.04553204723430
C            2.39587693145031        0.84265312446018        0.35444362052304
C            3.72618690572659       -0.85916713542452       -0.57411218500354
C           -0.80724124790669        2.66324064111488        0.41456929855348
C           -0.65490249232497        3.68209767839868       -0.53804786201380
C            1.70021346269727        2.98223789692051       -0.75353989272024
C            0.62448930218985        3.85847352215439       -1.14651480498681
C            2.73208810152878        0.49688185870632        1.63551580111928
C            3.56228035273846       -0.63717691149661        1.85207852274115
C            4.08261419618371       -1.31778824288268        0.71746419035610
N            0.19437049649721        1.73738077493513        0.63692235933781
N            2.85335272958737        0.14394104244463       -0.75426607546375
C            0.78255218424174        4.84676743655501       -2.11590108694571
C           -0.26909939834076        5.66634307360138       -2.47383907700088
H           -0.12818502811367        6.42652127768439       -3.22646615849746
C           -1.51327155161632        5.50953123633191       -1.86633602822989
H           -2.33264468041340        6.15255669316864       -2.15008105711825
H            1.73432078603062        4.96615724590651       -2.60714163551133
C            3.87374507667002       -1.11475919116552        3.13876679141103
C            4.67703318001038       -2.21013569782465        3.30672048524320
H            4.90367537688300       -2.57057535600770        4.29846507678760
C            5.20175681489186       -2.87131447363610        2.19104931017661
H            3.45879466211861       -0.62141714052872        4.00214548907928
H            5.83278298031021       -3.73541027778526        2.33056394965911
C            4.31053257393714       -1.55053384381161       -1.78243281993630
C           -2.03609162727932        2.48684316956979        1.23600357432809
C           -1.71233078046412        4.53674060826476       -0.91876057589601
H           -2.68798324183921        4.41111135607858       -0.48007213385797
C            4.91373193078638       -2.44009205586955        0.92440645966665
H            5.32027512818179       -2.98048195861949        0.08725545044811
F           -3.08226141001667        1.96262024589156        0.55293179011862
F           -2.50035795489932        3.65461396930946        1.73471095021722
F           -1.85109302103681        1.69895756830971        2.30041665032409
F            4.02949500707031       -1.02487638609528       -2.96456499063916
F            5.66574983652081       -1.55317648179657       -1.71067122008960
F            3.95098523366983       -2.84790227410052       -1.84957196460725
C            2.21782580358669        1.31179498171986        2.77862576856218
H            1.33004942982271        0.83670711412885        3.19544712884735
H            2.96642287520598        1.40008955288737        3.56096786474062
H            1.94132621348904        2.30887732790428        2.44763613783665
C            3.09098736993069        3.22635478717846       -1.24383335542686
H            3.18508253013906        2.84990659080028       -2.26260307714466
H            3.32130586605614        4.28873297284186       -1.23488883982237
H            3.81841185727532        2.70939654899988       -0.62214573585059
