69
 energy: -137.569757261811 gnorm: 0.000773076968 xtb: 6.5.1 (b24c23e)
Si          -0.10541444144322        1.29129929491745        1.30833722938551
O            0.87326557389973        1.33074640263131        0.04874414865812
C            0.92203462327260        1.97086489611636       -1.21902638266908
C            2.04585510747598        1.34325018740370       -2.00165012399589
H           -0.02954608312068        1.77994994335280       -1.72681101672968
C            3.33798657557382        1.33761439794459       -1.49207136945217
C            1.79675081662155        0.77815376552049       -3.24412944082542
C            4.37595921656890        0.80681953824691       -2.23561056345337
H            3.52993105614676        1.74273423729221       -0.50947478713399
C            2.83720074652093        0.24467330599301       -3.98424691034035
H            0.78462092255283        0.75349720852376       -3.61801512517609
C            4.12896505413602        0.26956566139391       -3.48721321167175
H            5.37980123243622        0.81506180131830       -1.83813544397524
H            2.63983015586085       -0.18833403685983       -4.95401713439032
H            4.94216937131311       -0.13525546442501       -4.07121911629539
C            1.13996177761770        3.48299280317056       -1.06308211974505
C           -0.01628427641278        4.12854738351347       -0.48021923869171
H            1.33609505105021        3.90532524090700       -2.05191761556104
H            2.01196962646554        3.65572080716675       -0.42691498805994
C           -0.98566724429126        4.62856500753081        0.01178112357090
H           -1.83118529040905        5.08133404810301        0.43590911978543
Cl           0.47583190406288        2.48905840076696        2.79212045286965
Cl          -2.06187222058602        1.56717150940397        0.91211335742224
O           -1.00751493714154       -0.28089669236734       -1.85970021875128
O            0.02111956564586       -0.26443929203981        1.85323819870608
C           -1.31926587425010       -1.62518918379745       -0.05907291302340
C            0.15289633293920       -1.73007065118543       -0.01294509992123
C            2.08424607688777       -1.33355146423302        1.33760005651263
C           -3.14653012120560       -0.67507628573074       -1.19506170540227
C           -4.04640244341097       -1.17933584815890       -0.22501795430041
C           -2.12660548764916       -2.19637894398127        0.88925899570989
C           -3.52515109409930       -1.94266606038663        0.85494109459805
C            0.91145170677996       -2.23405467985379       -1.02296470851952
C            2.34930289680147       -2.16749767601835       -0.93319829435130
C            2.93277758622882       -1.69015264728285        0.27920213068471
N           -1.81961875017737       -0.83275820964542       -1.08119782406207
N            0.71254998666945       -1.29854007714912        1.17285122875525
C           -4.40362297444141       -2.40430664119858        1.85298786210052
C           -5.74502926707077       -2.14111963095794        1.78475034000946
H           -6.40764447808795       -2.49474541359982        2.55973136035951
C           -6.26135040578995       -1.40740315750305        0.71125953891608
H           -7.32008873187488       -1.20470241378565        0.66354780887233
H           -4.01099711118061       -2.95580707353690        2.69117784741120
C            3.18254435777120       -2.55110646252368       -1.98050830926142
C            4.55674104574548       -2.49839541116556       -1.85393684450332
H            5.18563114895856       -2.81535119044759       -2.67113948385028
C            5.12867971811514       -2.02904574740623       -0.67468774555160
H            2.75404630923660       -2.88831042072628       -2.90978304299188
H            6.20324969615044       -1.98002850368452       -0.58214815085990
C            2.58385318655668       -1.00042946087461        2.70124909613223
C           -3.69630474280949        0.11245674868402       -2.36044537315698
C           -5.43567574375263       -0.93427889897262       -0.27266294384906
H           -5.86192900954870       -0.35841214054968       -1.07564587691725
C            4.34017295189282       -1.61879945415352        0.37147841639637
H            4.80118973714575       -1.23214584517700        1.26476070688341
F           -4.33441433516732        1.22985782566777       -1.96066512525539
F           -4.62150094292787       -0.61876825184625       -3.02844184661226
F           -2.82591156096010        0.49673676253750       -3.28526806307508
F            1.63673865759731       -1.05783947412214        3.64525626924277
F            3.54968273552094       -1.84606344775212        3.12245460705536
F            3.13442401358025        0.23329638533138        2.78864775465341
C            0.26488287491060       -2.85375129576902       -2.22030763586384
H            0.28638379697991       -2.14697630923750       -3.04949108118606
H            0.79130168914198       -3.75898957402711       -2.51318690166557
H           -0.77184201323516       -3.11112429338603       -2.01711714389672
C           -1.52927767276761       -3.07367158016373        1.94221823405496
H           -1.38503858807154       -2.50137830069530        2.85843442046744
H           -2.18035181087296       -3.91680117671219        2.15668152207256
H           -0.56173923007713       -3.45386978034099        1.62708795370208
