75
 energy: -118.539975924714 gnorm: 0.000545727592 xtb: 6.5.1 (b24c23e)
Si           0.86268048317938       -0.60862414010310        0.70445793149878
O            0.96090272160275       -1.57366838428587       -0.59263355894293
C            1.63595455251806       -2.79912105109064       -0.75888254211644
C            3.11342728299744       -2.62578882098297       -0.52119952127492
H            1.23274681715897       -3.52673602235697       -0.04348766524835
C            3.75743806345390       -1.50377060746081       -1.02593288843925
C            3.83414349896635       -3.55016984646891        0.21978872561280
C            5.10395402849926       -1.30332976732547       -0.78634225228903
H            3.18660641001700       -0.78007318057432       -1.58916437782795
C            5.18384620496962       -3.35248990435925        0.45308375362819
H            3.33250244322748       -4.41450495142583        0.62907321111114
C            5.82014038353805       -2.22936545583218       -0.04701797552396
H            5.59541533334689       -0.42278849798799       -1.17409002462121
H            5.73738193801490       -4.07174235164411        1.03837079113979
H            6.87103539265642       -2.07133887929631        0.14599119618654
C            1.36280730065184       -3.27214296885147       -2.19891485791045
C           -0.05911790396469       -3.31208307656637       -2.46596316232674
H            1.80242385451544       -4.26275916024107       -2.33822273203440
H            1.83363838607337       -2.57240553944867       -2.89389492646647
C           -1.24210371891102       -3.30093741177175       -2.64838263989472
H           -2.27698982641332       -3.30508383498162       -2.82180067869947
Cl           2.23464222223692        0.61385010086508        1.64653069659784
Cl           1.17574382527825       -2.18086875518703        2.18459762381746
O            0.56613581017175        0.66163337380016       -0.59256956015022
O           -0.68611289913035       -0.30783203733951        1.38286072623329
C           -1.14530833618598        2.02313055052392        0.08860521440041
C           -2.02450415000601        0.85598733973819       -0.10480994605440
C           -2.56535923146468       -1.40223144637888        0.48593033220553
C            1.02193443988063        2.94497369917956       -0.30451965557033
C            0.55801440480226        4.21293204188405        0.11710151130831
C           -1.64231569129398        3.22734611713002        0.49062167954656
C           -0.79209448394019        4.36081929422117        0.55476926141950
C           -3.08636447728599        0.93394889299645       -0.95543338576887
C           -3.90199346186683       -0.20635727316452       -1.18989713556479
C           -3.61963690199834       -1.39526393978691       -0.45144053202385
H           -2.68187945130003        3.31522780307428        0.76099710485096
C           -1.26472961971426        5.60040707523458        0.99125321106565
H           -3.28130260233583        1.85255812763436       -1.48430423158977
C           -4.94772585566900       -0.17550166777747       -2.11133194632011
C           -4.42929313540267       -2.52336096274887       -0.71437108636701
C           -2.28305284138391       -2.49816071163611        1.47737549194378
N            0.16083760462994        1.89822767922154       -0.25493437234997
N           -1.78395222392486       -0.28808398980015        0.57740142782093
C            2.36027066813622        2.67000437723933       -0.93833348238305
C            1.36732518861893        5.36936893872495        0.12741501407548
C           -0.43830651595812        6.70524230737351        1.00050879817181
C            0.87622084488379        6.57954699643769        0.56105689754105
H            2.38871703660012        5.31105363333096       -0.19721983527517
H           -2.29030909093892        5.67925318860156        1.31987655336082
H           -0.80840666945020        7.65973110047569        1.34154038937166
H            1.52326571209210        7.44416973414995        0.56094813974031
C           -5.72508057697362       -1.29634515301969       -2.33456976448243
C           -5.45233469223149       -2.46694276888956       -1.63371492093124
H           -4.23611006994682       -3.45029877785578       -0.20683804382449
H           -5.13866368052653        0.73954031700177       -2.65214182200801
H           -6.53240902886770       -1.26585863636684       -3.04978078940936
H           -6.05042986280876       -3.34823252295100       -1.81466984315187
C            2.40146909530887        3.29379587195535       -2.34102885320261
C            3.58092469208941        3.07996954872612       -0.10333868123636
H            2.41087168179885        1.58730893861770       -1.06500546565162
C           -1.86127535107331       -3.83050603927736        0.84162331324181
H           -1.43713589719622       -2.16311991884687        2.07957119717568
C           -3.46260231864532       -2.67398249507964        2.44321879439768
H            3.35280310913465        3.05961421245552       -2.81235940126071
H            1.60265974646394        2.89023966285513       -2.95970510529327
H            2.28935732779795        4.37421634964232       -2.29891574153967
H            4.39277307360914        2.38338173370553       -0.29462650729970
H            3.93606591873129        4.07509545592908       -0.35731957605573
H            3.35375941501426        3.03835184991578        0.95678129105426
H           -1.32516925809034       -3.65792628738819       -0.08829206969406
H           -1.19979009763096       -4.35384798748127        1.52741942631238
H           -2.71059686089141       -4.47731422999613        0.63802095089942
H           -3.20447391084316       -3.42733397983957        3.18299402760963
H           -3.66752005882531       -1.74031540817391        2.96260804251057
H           -4.36837515953891       -2.98447747058503        1.93010183228774
