75
 energy: -118.542268202555 gnorm: 0.000908854394 xtb: 6.5.1 (b24c23e)
Si           0.26579722619181       -1.53372807763515        0.48087047537851
O           -1.34062496860796       -1.47038388064646        0.23119525591369
C           -2.23806226713343       -2.41725759677499       -0.29475195942516
C           -3.18240731868029       -1.76851334682348       -1.27608985977308
H           -1.67012834106453       -3.20464853967522       -0.80483225846157
C           -3.29093603876542       -0.38977670476755       -1.37252618002961
C           -3.98369002552026       -2.56422452835984       -2.08757002382342
C           -4.19008025741369        0.19043449137026       -2.25008040090205
H           -2.65832449858833        0.23035319676442       -0.75963426235840
C           -4.88414603127795       -1.98633036570266       -2.96297981931340
H           -3.89338845938933       -3.63985275347516       -2.03839329309990
C           -4.99394883476254       -0.60728917388363       -3.04389944533181
H           -4.25901430573014        1.26757145328014       -2.30759491851562
H           -5.50227009842332       -2.61406667167730       -3.58785947577944
H           -5.69908099082084       -0.15893308398159       -3.72791784262903
C           -3.04220143351890       -3.06714310316963        0.85216175122054
C           -2.15605621314331       -3.65196859385968        1.83466593577008
H           -3.69094829424989       -3.83926634299181        0.43238613616315
H           -3.66447412000478       -2.30704303446560        1.32880735719511
C           -1.38405016592308       -4.09965934027430        2.63130774219725
H           -0.70536915677477       -4.49885296622346        3.32393519416142
Cl           1.27239887481255       -2.09123908855731        2.18939803782886
Cl           0.64599788211481       -3.41968823225784       -0.50154388498655
O            1.08049255589417       -0.77129105286402       -0.83627275759349
O            0.17747988613911        0.07007587522632        1.35600798766263
C            1.61425538059589        1.44189160944596       -0.40876532059267
C            0.18291215800125        1.73511791621067       -0.22511798150621
C           -1.70698733519783        1.46783483656497        1.20947286345201
C            3.34995552119568       -0.16159249842323       -0.80961925242236
C            4.32327347046902        0.84342527703544       -0.61758209806156
C            2.51912260401296        2.45509362418282       -0.29342118093211
C            3.91101965270096        2.18988263784174       -0.37964468035173
C           -0.43525653171469        2.71822195329877       -0.94111517894795
C           -1.75631574913812        3.11605672864444       -0.61100346919792
C           -2.36872042754372        2.52144868764919        0.53359151430090
H            2.17571440371506        3.45621277617008       -0.08995468018207
C            4.85241053780013        3.20620625039521       -0.21753820228674
H            0.08918897085571        3.20425873072777       -1.74727973758288
C           -2.42412605791087        4.09858124385759       -1.34379524780211
C           -3.62915142713260        3.02537299890355        0.91955478169352
C           -2.19736843037291        0.76270041225963        2.44595911908515
N            2.03558967292858        0.18201165506389       -0.67592294048408
N           -0.47529399284881        1.09811602713198        0.77489418110574
C            3.63025149592259       -1.58596450386214       -1.20458481634419
C            5.71533627591713        0.59868304686632       -0.64283987744440
C            6.20420545635884        2.92955812662908       -0.26924721795930
C            6.62329893962189        1.61828913981139       -0.47309023425069
H            6.08442122909287       -0.40073915072396       -0.77968610709879
H            4.50507703897134        4.21395335729069       -0.04450282521257
H            6.92828087435563        3.71935655067349       -0.14269897053612
H            7.67953203163750        1.39426311161450       -0.49587874966872
C           -3.67810808262969        4.53189328699204       -0.96136295162504
C           -4.26311441509360        4.00144272497246        0.18359220956573
H           -4.11015158238640        2.65146888058885        1.80293851774039
H           -1.93903291233760        4.51801090950124       -2.21252249673120
H           -4.19271988863149        5.28635625459064       -1.53608277742012
H           -5.23083659299398        4.35880966105765        0.50292184583216
C            4.40245446723467       -1.68456175616220       -2.52685110144219
C            4.28900553022056       -2.39076744197138       -0.07768491149484
H            2.66462279957038       -2.06017904827252       -1.39072442989485
C           -3.65024382462738        0.27229065130934        2.40530026171447
H           -1.56584709476395       -0.12163938119712        2.55640980022767
C           -1.94719584694193        1.65727097293150        3.66873755390594
H            4.39718535201013       -2.72070848783205       -2.85538435760675
H            3.91591027783843       -1.08238733601169       -3.29124420882443
H            5.43400891600947       -1.35929059494618       -2.44260455656887
H            4.36228739229820       -3.43007721374803       -0.38647102016100
H            5.28272603084901       -2.02967475458065        0.16843280581937
H            3.67576820431956       -2.34941253583872        0.81898719333691
H           -3.96714488711285        0.06505016747514        1.38641850906421
H           -3.72841372672123       -0.64228880213773        2.98921736113338
H           -4.33781553657830        0.98985111557488        2.84556327739271
H           -2.26666011841145        1.13860602902108        4.56892600391706
H           -0.88745267911757        1.88295147545353        3.76161585005680
H           -2.49548214965013        2.59345713939003        3.58826543981139
