75
 energy: -118.539919777603 gnorm: 0.000700227806 xtb: 6.5.1 (b24c23e)
Si           0.20636866793659       -1.26020000638623       -0.79333159677189
O            1.76378988630551       -0.94151323966468       -0.44974836905824
C            2.82524341840178       -1.70672287757059        0.08386043534925
C            2.52705204886867       -2.09129580410558        1.51614839234481
H            3.67074572254432       -1.00010272588544        0.09120633459069
C            2.00624394966723       -1.10372429904213        2.34587074582661
C            2.74533229398079       -3.35803025000338        2.03693394893738
C            1.68956094055100       -1.37892401173940        3.66196370649939
H            1.84040156620677       -0.11310202377608        1.94545009570483
C            2.43515440021630       -3.63093853671042        3.35851258689319
H            3.14312430078170       -4.14705096518746        1.41955425232882
C            1.90356029296530       -2.64761366525348        4.17303551552385
H            1.27687978968054       -0.60178559309140        4.28929520105857
H            2.60284275470681       -4.62364520063394        3.74960002887763
H            1.65515910871703       -2.86823122940081        5.20084324671722
C            3.19508182854665       -2.87767324977691       -0.83834760544398
C            3.32722117683401       -2.42361922689603       -2.20580259806385
H            4.14071790999912       -3.31009453322714       -0.50281130877001
H            2.41016594842776       -3.63554141139545       -0.79902131478385
C            3.39975045797160       -2.01374304201978       -3.32787393777973
H            3.47153608706676       -1.68959990478076       -4.32308340758888
Cl          -0.47850777958342       -1.77737176398144       -2.65495058318139
Cl           0.09085850037368       -3.26395882325259        0.00302545333283
O           -0.87497521620103       -0.83328520571417        0.47923661758699
O            0.08313085737193        0.46082530269762       -1.44854464930452
C           -1.66486928781288        1.34535895353981        0.33897833011077
C           -0.27867644302127        1.83912025539734        0.34843636344992
C            1.75439104204709        2.00795617799871       -0.88505068271635
C           -3.19127327907888       -0.50250249259465        0.25768645299095
C           -4.27415429654421        0.39627863450537        0.14718547593836
C           -2.68848348527341        2.24533265614443        0.30315353943113
C           -4.03393501890365        1.80333636652638        0.20287061558227
C            0.13453210113079        2.77242571526439        1.25579518035847
C            1.40618751895202        3.38383295925577        1.11890229495036
C            2.19921547066898        3.03086970626220       -0.01331412744017
H           -2.47066704093992        3.30089503427643        0.30513010637891
C           -5.08974016200394        2.71163079173704        0.13707062866344
H           -0.51863177267040        3.05981294842904        2.06337400004094
C            1.85455089812360        4.34623408806903        2.02658834970898
C            3.40323691168794        3.74265772409248       -0.20293815848877
C            2.48925570949518        1.52960340790913       -2.10695999412902
N           -1.92913756878690        0.01599211433545        0.34503079582957
N            0.54289724621839        1.44832662229052       -0.65734296376642
C           -3.30578543287334       -2.00124325919150        0.32930383384035
C           -5.61793141516579       -0.01229982251242       -0.01796146229615
C           -6.39182345849796        2.27095578583090        0.00303202751020
C           -6.64128717601187        0.90482591319403       -0.08457689356742
H           -5.85762071152769       -1.05545172376079       -0.10807891752080
H           -4.87117139073329        3.76801963622254        0.18817352889286
H           -7.20549500083501        2.97775256973757       -0.04462444994615
H           -7.65563802869368        0.55567876933946       -0.20967238755726
C            3.05840112734476        4.99206664654781        1.82925515683265
C            3.81696453030626        4.69532017333991        0.70151454124043
H            4.00985493585565        3.55153319265013       -1.06801506869896
H            1.23745030368828        4.58323228266141        2.88039703211379
H            3.40105666833982        5.73262697650383        2.53532700195630
H            4.74520531979239        5.21976646557618        0.52967575097565
C           -4.16546696456978       -2.47310752085714        1.50935050274194
C           -3.74834340096461       -2.61536677410741       -1.00487809291359
H           -2.30509809153540       -2.38963553627914        0.52567541832435
C            3.97582118300895        1.21428259228525       -1.87545984913189
H            2.00474933566587        0.59925033387338       -2.40854516414483
C            2.29097553270127        2.53278196007066       -3.25250191833302
H           -4.05986581067689       -3.55077711960776        1.60654657723245
H           -3.81878066339146       -2.01282218061119        2.43207707697204
H           -5.21878300261019       -2.24319383535644        1.38889702244035
H           -3.71741405329673       -3.69849404663188       -0.92050037824462
H           -4.75291605918884       -2.31732896611044       -1.28886391463674
H           -3.06406623005899       -2.32076852065871       -1.79687999563898
H            4.19961328897665        1.12363294932912       -0.81593567252856
H            4.22077472168273        0.26805485945097       -2.35178726077621
H            4.62048591791291        1.97918884358312       -2.30205115080942
H            2.80250760275234        2.17275985558137       -4.14129923569500
H            1.23312158075409        2.63390955234561       -3.48418487586662
H            2.68358338622258        3.51352357092132       -2.99320018048745
