75
 energy: -118.542125411443 gnorm: 0.000870022221 xtb: 6.5.1 (b24c23e)
Si           0.52934807010366       -1.09776579568034       -0.35216268701286
O            1.87872788871789       -0.29114937329659        0.06491021625804
C            2.96523007703551       -0.59987227197935        0.91399822941148
C            3.67413250135180       -1.86203413333156        0.47539144582497
H            3.66041619642868        0.24206076468353        0.76420055470796
C            3.86467935103333       -2.05524355842509       -0.88840570329306
C            4.16149198618583       -2.81387716069624        1.35950973323589
C            4.50616057441662       -3.18309338115398       -1.36247108793045
H            3.48281435846572       -1.32063307365133       -1.58195508982158
C            4.81221867019296       -3.93969376648911        0.88461377869958
H            4.02501221082035       -2.70119025695278        2.42306190475707
C            4.98449838343879       -4.13079747780883       -0.47425196676832
H            4.62915969603467       -3.32220461240570       -2.42630287821369
H            5.17766626932484       -4.67653398322969        1.58490144007413
H            5.48383128971636       -5.01566532900971       -0.84014947946250
C            2.51137108444288       -0.58221250404046        2.38046060854710
C            1.87233479788633        0.68077759492767        2.68150401766022
H            3.37914141698861       -0.70341197610652        3.03245188906972
H            1.80643357918520       -1.39883452548864        2.54788146976305
C            1.36371281954468        1.74334593984343        2.89285164392989
H            0.90604501284100        2.66261626086595        3.10544438401475
Cl           0.27776571831912       -2.04992415897305       -2.16229794307958
Cl           0.90247390848389       -2.95124202779311        0.70588003241982
O           -0.75993212087587       -0.82749231201648        0.75713318116789
O            0.00347732241177        0.37459264032662       -1.30492700172982
C           -2.14862379037145        0.93390067754345        0.15055966536138
C           -0.99257191760096        1.84338445619055        0.14914044956469
C            1.05907562803979        2.43097409311869       -0.91317308716504
C           -3.02511176760942       -1.28977171550215        0.34719172122518
C           -4.31168248953310       -0.81514461140732        0.01214506581225
C           -3.38731578406399        1.43909798731127       -0.11652073652505
C           -4.51650231218912        0.58311731996789       -0.19520084963664
C           -1.01705106373176        3.01122730003834        0.85704691103209
C            0.03392579474135        3.95172490929360        0.71725446612740
C            1.07203717915716        3.66271443794561       -0.21723913219290
H           -3.50140696070160        2.49281004872688       -0.31223216487549
C           -5.78459372325711        1.08439081991205       -0.48713568260899
H           -1.84024915248555        3.21520677509426        1.52224683919488
C            0.04511355782826        5.14575614203845        1.44274289365963
C            2.06732748994030        4.64649970535343       -0.39858448221244
C            2.04621355482578        2.02530383798037       -1.97420634796523
N           -1.99722361208899       -0.39002339495584        0.40249934950927
N            0.04128508416777        1.56936135878185       -0.68233656777650
C           -2.68535382370094       -2.71552477630742        0.68816117971866
C           -5.44275634342723       -1.65118430216195       -0.13504262070593
C           -6.86968283249348        0.23696859300785       -0.59587417781524
C           -6.68256702853725       -1.13168352585642       -0.42823095680065
H           -5.34490374647119       -2.71569535710837       -0.03045902730479
H           -5.90269615971140        2.14822726170158       -0.63074201062445
H           -7.84934300525779        0.62997685036008       -0.81883848133779
H           -7.52403242613975       -1.80083246646489       -0.53170885932308
C            1.05196745519746        6.07206586372459        1.25862340055770
C            2.05307442720692        5.81700927365174        0.32717043778099
H            2.85490424081373        4.49016907632165       -1.11133652920884
H           -0.75123826641672        5.33369041914341        2.14816124278555
H            1.05788495633098        6.99008907015920        1.82585031608644
H            2.83273832015802        6.54729700009499        0.16880903001868
C           -3.47456448104799       -3.24009944795710        1.89474544744496
C           -2.78258019473601       -3.64124903153762       -0.53122526158095
H           -1.63891075212001       -2.73188465406602        0.99723495353946
C            3.51812632035494        2.12477943416007       -1.54272371934618
H            1.83772435286863        0.97690964443381       -2.19269010876941
C            1.77672752501351        2.81150515947490       -3.26536074353811
H           -3.06439789549666       -4.20437087666468        2.18443594802220
H           -3.36659690682036       -2.55780297083083        2.73514447210612
H           -4.53294043806150       -3.36579429234750        1.69222510735257
H           -2.43006705017797       -4.63022636694108       -0.25053041632711
H           -3.79540202424471       -3.72799624755614       -0.91254903695273
H           -2.14453298610003       -3.27261386780616       -1.33096929696237
H            3.60367291255318        2.16756346289823       -0.46035574349277
H            4.06326395232919        1.25104431269345       -1.89128353992987
H            4.00406396491635        3.00080180057487       -1.96573515076996
H            2.47034158843997        2.48807789099662       -4.03750833415276
H            0.76406162143278        2.62381036165467       -3.61529188967287
H            1.89534194578038        3.88142703900724       -3.11174463355568
