75
 energy: -118.455138520377 gnorm: 0.000877244821 xtb: 6.5.1 (b24c23e)
Si           0.43919086667896       -0.98404085724085        0.65596864292338
O            1.87705022187941       -1.63223097722899       -0.11342673433185
C            3.08922785376929       -1.24536967372380       -0.10801237975686
C            4.12222504001701       -1.96658882881254       -0.74776479675264
H            3.34463077754200       -0.33021492297241        0.41878476625001
C            3.85526419956154       -3.17106587538095       -1.43254297536728
C            5.44998395371741       -1.49299391679431       -0.70656266351104
C            4.87471761005618       -3.86313679118619       -2.04273089894731
H            2.83769685963043       -3.52816519030900       -1.45845985906039
C            6.45855818045693       -2.19703125714926       -1.32177662148959
H            5.66253422873752       -0.57339272618908       -0.18085501905396
C            6.17909199699256       -3.38313013270407       -1.99235409828867
H            4.66375951704048       -4.78559198135239       -2.56340001413122
H            7.47410395857020       -1.82993394231797       -1.28407796338601
H            6.97620248705273       -3.93111141390946       -2.47188314634349
C            3.41298022808684       -0.58420658764001        3.25685271093965
C            2.33170579481615       -0.19814883622659        2.65223209707155
H            4.39864533276104       -0.30103988228868        2.92180362140712
H            3.36417579694769       -1.20593071997054        4.13539144075006
C            1.25667151694083        0.12293929570617        2.01069520529243
H            0.73065277121499        1.02712370837432        2.28817884569969
Cl          -0.62733770077685       -2.01337305898350       -0.96235168289914
Cl           0.31922865613237       -2.71007215807399        1.94442300720736
O           -1.20282184223732       -0.24951961749016        1.31291943703000
O            0.44643100561998        0.47301382136401       -0.62294796593461
C           -2.23793857239727        0.86104753052341       -0.36301749750030
C           -1.25307900936580        1.93926801767404       -0.14429878083124
C            1.00099491323415        2.69832886271558       -0.24503282348938
C           -3.14027723123670       -1.17746766303645        0.45340715336790
C           -4.15287496048597       -1.12346780395477       -0.53524316011914
C           -3.20464063685814        0.97461160324435       -1.31642827086695
C           -4.17959167311311       -0.03488651009019       -1.45180884831811
C           -1.70206038998905        3.18620399976946        0.18343525995426
C           -0.79412756697861        4.25590664177193        0.35723058689946
C            0.58809928034135        4.00170469094876        0.11505239784704
H           -3.20875739107650        1.82586902051440       -1.97890285906597
C           -5.16730018817186        0.02708125204319       -2.44859255692464
H           -2.75909166175555        3.35178390777828        0.31778979537108
C           -1.23321500488519        5.53216602710666        0.72561020421435
C            1.47008873429905        5.09806852692251        0.24715185386594
C            2.39927733234260        2.31303768489288       -0.65567568175481
N           -2.22345325377452       -0.20387211916316        0.48071070126271
N            0.07497303507529        1.70571731198722       -0.31695333089463
C           -3.04776388096304       -2.20787865077610        1.54273057743093
C           -5.14658616390486       -2.11680749012354       -0.67366687136533
C           -6.11515171832898       -0.95762733371144       -2.55145205800162
C           -6.09846122132062       -2.03232768143114       -1.65621158011967
H           -5.14944945143706       -2.96214518018330       -0.01143292583804
H           -5.16051912958604        0.86235929407080       -3.13296492420070
H           -6.87110527586819       -0.91055642023040       -3.32045382778942
H           -6.84458939636542       -2.80757429576732       -1.74553675422983
C           -0.33901272124919        6.57077882884818        0.85641949195633
C            1.01348277495287        6.34276063827426        0.60973855195092
H            2.52173662833552        4.97224710224711        0.06828746332487
H           -2.28687504191282        5.68601469371994        0.90466354252570
H           -0.68002305808002        7.55331900597462        1.14348299559200
H            1.71659920154142        7.15682797577296        0.70534531887723
C           -4.19813934057648       -2.02174275246458        2.54138218385493
C           -2.94892654088318       -3.65362918996571        1.03536273327026
H           -2.11956353575161       -2.00158988475000        2.07925964400784
C            3.44818221362518        2.47162590061802        0.45039584720910
H            2.35386653709973        1.24591140655920       -0.89483114040353
C            2.81148880877819        3.02580410354775       -1.95035379010122
H           -4.08358510074328       -2.74369586719850        3.34515720562759
H           -4.16980176783775       -1.02323314769631        2.97305552557740
H           -5.17008632347986       -2.16636152800383        2.07594654822766
H           -2.25905864573739       -4.19749262126814        1.67389838751799
H           -3.90794477115403       -4.16517168687273        1.05671665497026
H           -2.54835720197164       -3.67345014614646        0.02665103611980
H            3.11312128881313        1.98027647714388        1.36124145197853
H            4.37529574754960        2.00370178862129        0.12489977252369
H            3.66431691050473        3.50899651659814        0.68304772623575
H            3.77861057630707        2.64810208637099       -2.27384755893312
H            2.08701659591752        2.82289789014718       -2.73591592012476
H            2.88510993733672        4.10175070890937       -1.82473040602518
