75
 energy: -118.539890290315 gnorm: 0.000597950542 xtb: 6.5.1 (b24c23e)
Si           0.19791373850079       -1.18680183833362        0.32762029005160
O            1.34623600024691       -2.22428468160421       -0.20516855092467
C            2.66811937557848       -2.48743410198956        0.18145397454388
C            3.65323563655779       -1.89059975934729       -0.79251055870369
H            2.84536691031548       -2.07407070123795        1.18270179687649
C            3.27903545525189       -1.59915129768726       -2.09670732392415
C            4.96313977801650       -1.65594782134833       -0.39123949222769
C            4.19959262818207       -1.07216493362724       -2.98563244202162
H            2.25906819289602       -1.77714042249202       -2.40048260370635
C            5.88414725303114       -1.13639584276601       -1.28280619453956
H            5.25715522266668       -1.88164293063489        0.62438005471585
C            5.50368922232157       -0.84212475281150       -2.58222287269795
H            3.89880437333615       -0.84364905179698       -3.99760052709824
H            6.90056346340623       -0.95682897907148       -0.96282765702972
H            6.22289920879393       -0.43336520456113       -3.27703312233635
C            2.85111924038496       -4.01927550983482        0.23392836942712
C            2.02032145945028       -4.59178573684055        1.27035769038321
H            3.90165484893343       -4.25052564279361        0.42663730347828
H            2.56404615442215       -4.43483319638174       -0.73535857041439
C            1.31118308139603       -5.01481598630047        2.13591792604808
H            0.70013110172080       -5.40924987426777        2.89131051983361
Cl           0.98993994122251       -0.89710542422250        2.25741836920385
Cl          -1.10083433166456       -2.16988358629263       -1.00177892138931
O            0.56958283837263        0.19821179431797       -0.61613017620546
O           -1.23108708813537       -0.38897130019446        1.13847218559246
C           -0.84223293391607        1.96161870539968       -0.06296680498519
C           -2.03036444638031        1.13937828740367       -0.36695506819027
C           -3.42888999291499       -0.65937597898942        0.35817588385636
C            1.53707071557027        2.20481657069349        0.12987916044242
C            1.37208571555580        3.53865493306776        0.56038646251681
C           -1.04049799394885        3.25328833564753        0.32687812316803
C            0.05844260832616        4.09030240817513        0.65748042046802
C           -2.96169467762533        1.56507805136436       -1.26580007177552
C           -4.17524119818188        0.84934944932992       -1.42683800911643
C           -4.42242395144346       -0.26107556386571       -0.56509541039623
H           -2.04523838897234        3.63451731363795        0.40950326449398
C           -0.13605445563687        5.40813208253100        1.06664003304744
H           -2.77258218734858        2.44626655510343       -1.85697941813624
C           -5.12795276764826        1.24409654757405       -2.36883842155034
C           -5.66959437619517       -0.90971814828119       -0.69828240725507
C           -3.57709297325890       -1.72672468372454        1.41015007465792
N            0.41880771684641        1.47413675346602       -0.16635550285910
N           -2.26410086085767        0.03113220982400        0.37922708253414
C            2.85778121743302        1.51589325472273       -0.08401107432083
C            2.44541579716423        4.39150093344858        0.90697499430944
C            0.94025721799346        6.21217952350190        1.39070447256797
C            2.22639357087296        5.68968982306508        1.30899172894074
H            3.45725905313063        4.03321252236284        0.86525511523537
H           -1.14409906429222        5.79085047599844        1.12704440603998
H            0.78447177396229        7.23201714323493        1.70634293043586
H            3.07145432138220        6.31136450590386        1.56597192061757
C           -6.32889349052338        0.57500572143750       -2.47824225949553
C           -6.59185393453811       -0.49915451593964       -1.63245036620229
H           -5.91034171784128       -1.74694949657945       -0.07035425807288
H           -4.90759700236346        2.08526818200928       -3.00913498886460
H           -7.06065750617603        0.88283040629637       -3.20910056284620
H           -7.53438456849988       -1.02053318220703       -1.71102090503498
C            3.68601889462526        2.18677513436432       -1.18763695690705
C            3.64981219312019        1.32505590477077        1.21449157420055
H            2.63604046951561        0.51180668072598       -0.45138903561636
C           -3.84176953183546       -3.13420291546602        0.86488991249180
H           -2.61611063772871       -1.77383554964625        1.92918034580705
C           -4.62497423303691       -1.30642425742578        2.45083966387893
H            4.57726123961548        1.59125423890543       -1.36918400886432
H            3.11121105225259        2.22686893636825       -2.11028588141881
H            3.98817953095903        3.19664437290802       -0.93080687283994
H            4.52899893678897        0.72238809818159        0.99926212460581
H            3.97367916919448        2.26278071107593        1.65311769699070
H            3.04008678534523        0.79645368720895        1.94324172736443
H           -3.20036502397162       -3.32456203580204        0.00926012002867
H           -3.61069496828853       -3.86015535747778        1.64113801741002
H           -4.87550580683505       -3.28208486400319        0.56907083263347
H           -4.67939144862011       -2.06268990322108        3.22992514448133
H           -4.34372453926395       -0.36113359518703        2.91032333327926
H           -5.61088500671752       -1.19102562977337        2.01008525130730
