75
 energy: -118.540037988410 gnorm: 0.000621905691 xtb: 6.5.1 (b24c23e)
Si           0.26530046951259       -1.32012033388830        0.93282754300433
O           -0.83698395175976       -1.67092107633707       -0.20032640137471
C           -1.84195068262168       -2.63939965907699       -0.32132984604222
C           -3.06195337691882       -1.99967028823384       -0.93831679708827
H           -2.08800665572419       -3.03768610259686        0.67195729562609
C           -2.93937351197039       -0.84416947516795       -1.69949971321053
C           -4.32054975927176       -2.55651079420181       -0.74624637361658
C           -4.05983969076679       -0.23865780011629       -2.23992867227235
H           -1.95989081683730       -0.41633835977432       -1.84862207073516
C           -5.43855276528101       -1.95703210089472       -1.29746939228704
H           -4.42192669060964       -3.45211086998011       -0.15040218494169
C           -5.31167877162235       -0.79350482192726       -2.03889679039200
H           -3.95345254183689        0.66955327029312       -2.81522432682469
H           -6.41389347836098       -2.39344376575542       -1.14005032045338
H           -6.18757723411616       -0.32050117862497       -2.45760716494865
C           -1.32526119136986       -3.78712679776650       -1.21370020231777
C           -0.14768480163975       -4.38571638386999       -0.62329326526999
H           -2.11244791997419       -4.53530361888185       -1.33036371573040
H           -1.07114608945378       -3.37685804566479       -2.19465698851493
C            0.83807743153066       -4.82555524488398       -0.10715503806503
H            1.69395011517392       -5.22308530465177        0.35031466270223
Cl          -0.82938946798330       -2.20787457227076        2.58863896686935
Cl           2.04837622084663       -2.04732258856150        1.66591722296869
O            1.13789959665941       -0.63633782974640       -0.55040647828381
O            0.09822186398422        0.25656159661585        1.60265172509630
C            1.73032660883465        1.52685169164437       -0.11991338068417
C            0.28159638149631        1.80805261114293       -0.10239699738680
C           -1.83258381216639        1.44950038426677        0.96725084397635
C            3.41824033168972       -0.08171266646923       -0.63905498709286
C            4.41292663981685        0.90700155049782       -0.44878230050249
C            2.64941282460705        2.51667110456587        0.05857956205275
C            4.03256033870683        2.22813066543297       -0.06543853377863
C           -0.26669262228760        2.68133825968952       -0.99163328367469
C           -1.67209405407193        2.90448867246755       -1.00153351570188
C           -2.45820789895569        2.27472625383969        0.01065863483130
H            2.32336470076458        3.51635609848574        0.29497749665128
C            4.99966161947155        3.21478532305711        0.14031163884767
H            0.36221475629578        3.17295882045851       -1.71593736138000
C           -2.27381897332201        3.71656630187533       -1.96089411890001
C           -3.85093219959989        2.51166869313433       -0.01120375535222
C           -2.47966235563918        0.90712655694919        2.21195555194928
N            2.12574595695553        0.26432569676369       -0.42029853370504
N           -0.49841899508404        1.20345410148180        0.82460826853644
C            3.64285029174010       -1.46080088856130       -1.20254649427377
C            5.79223606092260        0.66391057059906       -0.62530478173601
C            6.33952840677718        2.93347204417791       -0.02805658517926
C            6.72495146280008        1.65368888135527       -0.41621352739497
H            6.13097716090669       -0.31129849422717       -0.91905671337665
H            4.67851542150729        4.20347492534751        0.43258813456273
H            7.08223149635034        3.69895352485352        0.13551555648376
H            7.77264467888412        1.43170849012926       -0.55494094365402
C           -3.64042836465252        3.92443771033830       -1.95230953311539
C           -4.41884307204141        3.31497305569877       -0.97311004533564
H           -4.48393469670861        2.04236857139752        0.71831234319756
H           -1.65434981661005        4.18064179249320       -2.71424895997782
H           -4.09958796916036        4.55299469346251       -2.69971222474451
H           -5.48740331952228        3.47198209721688       -0.96753016071917
C            4.03431711912552       -1.35532183354070       -2.68362476772718
C            4.62753158492471       -2.34133739585820       -0.42432007384405
H            2.67351202574139       -1.96287087377875       -1.15984875865528
C           -3.68069914841252       -0.01886900947719        1.96451640239941
H           -1.72102547246979        0.31248172883444        2.72318595931035
C           -2.84437075958531        2.06508270655188        3.15209321252257
H            4.14745967408276       -2.35437476133895       -3.09678651692853
H            3.25978826712399       -0.83761974179584       -3.24527991467998
H            4.96921439140711       -0.81613085386851       -2.81250139071571
H            4.37981133857359       -3.38388031924883       -0.60570914150788
H            5.65700796737597       -2.19142435644698       -0.73595905394312
H            4.54391649852064       -2.15685046274852        0.64163882826520
H           -3.64726927916469       -0.44195999261193        0.96526313562153
H           -3.65221081785642       -0.83916401687632        2.67667310199131
H           -4.62676342173323        0.50152314800590        2.09173054659285
H           -3.26667365940427        1.66080490219719        4.06837541593413
H           -1.95710332367455        2.64044400528129        3.40807374555385
H           -3.56852427286778        2.73618617910533        2.69741730248999
