75
 energy: -118.538299657845 gnorm: 0.000689722861 xtb: 6.5.1 (b24c23e)
Si           0.63762463222539       -0.59315289749352        0.44458157371859
O            1.86458910069115       -1.50894986960534        0.94653698188831
C            2.48269334047288       -2.67770573268392        0.47226137247062
C            3.73538029111773       -2.32344485588700       -0.28945480799058
H            1.79191798104374       -3.22276549275430       -0.18164646695416
C            4.40102585603083       -1.13279371286161       -0.03194674017708
C            4.23967565483016       -3.19372356931668       -1.24711773776326
C            5.55300092310498       -0.81383979733121       -0.72900865030114
H            4.00362686813140       -0.45665247985364        0.70955187271974
C            5.39549949096719       -2.87614200040924       -1.93754857912800
H            3.71913758157467       -4.11768916916849       -1.45552364972493
C            6.05389226520277       -1.68476569080237       -1.68113222402585
H            6.06383739118171        0.11614049135468       -0.52435644749770
H            5.78082260760083       -3.55748834644811       -2.68201842327337
H            6.95366383402731       -1.43573187873620       -2.22466518435554
C            2.81720394399698       -3.55261081958109        1.69523992618194
C            1.60482827717362       -3.96318035434703        2.36955853368386
H            3.37932326363964       -4.42993149547336        1.36595962322641
H            3.43371913567399       -2.96761090284089        2.38246238454690
C            0.57528590672296       -4.26747244998718        2.89805216336473
H           -0.30712193328568       -4.54592140195873        3.39188647414818
Cl           1.27722495971001        0.82000788321249        1.94084056850038
Cl          -0.02511189141022       -1.97676489764856       -1.12300297019534
O            0.51520922383106        0.58476065896827       -0.80699265379353
O           -0.91271719129673       -0.48507343365943        1.16990584202418
C           -1.25485581940322        1.89318005094083       -0.13335570075676
C           -2.16053420846423        0.73771754699774       -0.33432962862783
C           -2.86556646565928       -1.46819528032711        0.30059714217071
C            0.91571825860888        2.87309655830497       -0.43670313800836
C            0.42127905658901        4.11701087359682        0.01134153372177
C           -1.77295697663980        3.07784491727097        0.29374116811233
C           -0.94533157715348        4.22649102117348        0.40968344430173
C           -3.22107987616876        0.87437736856840       -1.17891566900197
C           -4.16252767701811       -0.17804872092764       -1.33352609949440
C           -3.98347004409722       -1.36207245554554       -0.55621460646420
H           -2.81579384184591        3.14055612185935        0.55931246051473
C           -1.45564832470905        5.43809269625364        0.87556209611601
H           -3.34262261217131        1.78711312082437       -1.73931476547420
C           -5.24729997011868       -0.05254222277968       -2.20092094929318
C           -4.96215421033049       -2.37145688417622       -0.69654526742247
C           -2.55759492346037       -2.63002905055540        1.20804800384624
N            0.05718041578241        1.82091483633955       -0.47344837368086
N           -2.01020849859211       -0.41345529634262        0.36924022418110
C            2.30460535718974        2.60710025153821       -0.95389824883820
C            1.20813611720240        5.28738417458305        0.09818872030796
C           -0.65180673014337        6.55771908371760        0.95526041747319
C            0.67956138807577        6.47049547911532        0.55960740043286
H            2.24181654246205        5.26454237827027       -0.19236276949335
H           -2.49261868073936        5.48583612109085        1.17307556353631
H           -1.05150928800313        7.49172777010795        1.31848640461796
H            1.31039623926643        7.34532151980143        0.61621794336092
C           -6.17634861173898       -1.06751631921720       -2.31969907401470
C           -6.02523383349106       -2.22130296751415       -1.55730223387365
H           -4.88688938073761       -3.27865331125323       -0.12687839904402
H           -5.35001084633899        0.85480174255780       -2.77738837932855
H           -7.01284247721878       -0.96543656666630       -2.99342529495130
H           -6.75363790433205       -3.01437307340399       -1.64083649220752
C            2.56024793778100        3.36414925110609       -2.26457064678373
C            3.40775956652387        2.84788802986450        0.08251252905652
H            2.34503562557304        1.54224436011339       -1.19721193938412
C           -2.37604567561621       -3.96220362450498        0.47079295068722
H           -1.59390016413964       -2.41214330252718        1.67556833772947
C           -3.58836359448491       -2.72581923806757        2.34142591692752
H            3.54220559228795        3.09510261769165       -2.64605970181698
H            1.81690905587112        3.08859134997023       -3.00960062675761
H            2.52417590609916        4.44080991728105       -2.13009693241265
H            4.32482821587083        2.38026791262616       -0.26825015936351
H            3.60815757315641        3.90126421797424        0.24664805316650
H            3.12204048402950        2.39641170905322        1.02849814577741
H           -1.77091230653093       -3.81008303071510       -0.41805374833499
H           -1.85018475614967       -4.65590636564114        1.12226141703073
H           -3.31676603557541       -4.41890327960939        0.18181116938455
H           -3.32408549132943       -3.54926656523804        3.00011515969056
H           -3.59106158347883       -1.80785177647038        2.92525447261502
H           -4.59336445942304       -2.89393045183450        1.96561538878280
