75
 energy: -118.538066354618 gnorm: 0.000650314068 xtb: 6.5.1 (b24c23e)
Si          -0.40735138860054       -0.89595994767322       -0.09725368431683
O           -1.54592233673313       -2.03371328818416       -0.00771045648451
C           -2.72051000300748       -2.31574698866028       -0.72885419913800
C           -3.91061554889838       -2.18873252010940        0.18577269217073
H           -2.82003899752326       -1.61354571045519       -1.56322302210484
C           -3.81717021173918       -2.59483914500011        1.51037988188583
C           -5.10702369420733       -1.66502764999069       -0.28484055512602
C           -4.90797070698470       -2.47946262721909        2.35324432270122
H           -2.87860945482208       -2.98311507116980        1.87551652386626
C           -6.19930924786036       -1.55657516585670        0.55788574012570
H           -5.17835537717121       -1.33689840278242       -1.31194644110249
C           -6.10201131735954       -1.96387417815100        1.87785223480045
H           -4.82644234735152       -2.79369317552553        3.38352965063986
H           -7.12731312760486       -1.14844419266082        0.18446178940129
H           -6.95458192736574       -1.87613764180967        2.53550429463903
C           -2.59300580305211       -3.74622071636326       -1.28686706879927
C           -1.47631249581944       -3.81577976845812       -2.20457734884593
H           -3.51966285732233       -4.01729708800591       -1.79862338616561
H           -2.42572014124366       -4.43477924270932       -0.45487526333938
C           -0.52940029213439       -3.81143823021554       -2.93614749654182
H            0.28393140289576       -3.82709168166429       -3.59820043486214
Cl          -1.31430876855627        0.18487281175060       -1.77780798197674
Cl           0.60508955786057       -1.99936807713994        1.44392789875108
O           -0.42176388073048        0.44062639522012        0.97340151793403
O            1.04418078355609       -0.59646688903626       -0.98768794271313
C            1.14275764844158        1.88966229809654        0.09483738874603
C            2.20007818649386        0.88095550561787        0.34203628060711
C            3.17158010722726       -1.24184330587541       -0.21723492197807
C           -1.13878374663439        2.59466144347274        0.36083841984435
C           -0.82620959681521        3.84091045515882       -0.22451644982978
C            1.48841365167044        3.08780236279347       -0.45395890901177
C            0.51047003471833        4.09898948883950       -0.65512285786599
C            3.26641261845985        1.20849240641199        1.12282239329036
C            4.34007049406136        0.29476862447707        1.29523522396564
C            4.29344831436699       -0.94358005567954        0.58639958197395
H            2.50841506802411        3.26265437494613       -0.75546869898777
C            0.84581601735714        5.31861491926450       -1.24212601207667
H            3.29053557794998        2.16378652899663        1.62162365177575
C            5.42695710383415        0.60606494538681        2.11236121931373
C            5.39813547993325       -1.81077722408397        0.74084967463925
C            2.99688321164212       -2.46834100698860       -1.07307490991098
N           -0.14093140969791        1.67740213872660        0.48034716719269
N            2.17637770728995       -0.32091851160477       -0.28908435543678
C           -2.47066805435801        2.19891411341275        0.94309427036598
C           -1.77105650207528        4.87326338475970       -0.41905751750717
C           -0.10729481672742        6.30262204020560       -1.41785248909331
C           -1.41373242992154        6.06778409208550       -1.00117511737316
H           -2.79236729485453        4.73215554003713       -0.11800250290068
H            1.86567997756696        5.48105008229446       -1.55784922012753
H            0.15809518486838        7.24372869641596       -1.87390888870897
H           -2.16211088203729        6.83456738584449       -1.13710859461340
C            6.48285962838266       -0.27304073877568        2.24632428780096
C            6.45886967267918       -1.47839155356999        1.55102090605364
H            5.41915125194235       -2.75291385176230        0.22584927923767
H            5.42876312333348        1.54902892785083        2.63860698181340
H            7.31997679735700       -0.02769624193282        2.88126407887049
H            7.28580697848881       -2.16617003740372        1.64888574653408
C           -2.81437307182716        3.05737510366562        2.16801142075300
C           -3.61432228540172        2.16457675621040       -0.07771007982545
H           -2.35776791089201        1.17328137020378        1.30351713402626
C            3.00025326436563       -3.78364960100698       -0.28562522674055
H            2.00406179857981       -2.38965114021166       -1.52317538013433
C            4.00894891165002       -2.47995478211917       -2.22742556802454
H           -3.74689083801123        2.70269322088915        2.60011099092154
H           -2.03318884104399        2.97043240640221        2.92006122924960
H           -2.92734360507404        4.10689168690645        1.91402482593404
H           -4.44326455073500        1.59925773732812        0.34291369197114
H           -3.97609106093921        3.15413554095718       -0.33687319389023
H           -3.28299552622217        1.66589643914055       -0.98391383380388
H            2.39506936599042       -3.67358091476522        0.60939206336750
H            2.56256751422518       -4.56384804581112       -0.90403975133986
H            3.99750893786762       -4.10107087174361        0.00017995040848
H            3.83271450189447       -3.35438038642591       -2.84916610003215
H            3.89017954466820       -1.59073012574577       -2.84303306055379
H            5.03404092971222       -2.51200342941688       -1.87075348429161
