75
 energy: -118.458210940869 gnorm: 0.000463191417 xtb: 6.5.1 (b24c23e)
Si           0.18326407649182       -1.17054014879055        0.78290516842209
O            1.83793017717223       -1.75107048556236        0.46389984486362
C            2.40307127700962       -1.90047326717275       -0.66473642309089
C            3.79750501117635       -2.10166935371449       -0.79651849560608
H            1.78763424874703       -1.86289802138024       -1.56298457387678
C            4.63357539871501       -2.13402652722441        0.33979997154742
C            4.38165854756388       -2.25275907686421       -2.07052933154667
C            5.99003665161274       -2.31130016596723        0.19863453378347
H            4.17825168996714       -2.01402010556855        1.31038314016215
C            5.74031947186245       -2.42885005167978       -2.19453654291525
H            3.74672425170499       -2.22766870383447       -2.94392585451237
C            6.55151225080170       -2.45953918960592       -1.06510225982948
H            6.62404586519355       -2.33525507095710        1.07260221039817
H            6.18228250336329       -2.54463583502363       -3.17363636727790
H            7.61676709110957       -2.59922805120715       -1.17073717975715
C           -0.08733926898815       -4.67758467486664       -0.98814070343535
C           -0.38966618610729       -3.42474921254462       -0.85437109847319
H            0.75914467435032       -4.99802382693798       -1.57448720863034
H           -0.67158923715876       -5.45177107749818       -0.51894310888274
C           -0.64951625508717       -2.17549554029398       -0.64359193070984
H           -1.29715079799159       -1.65455027469468       -1.33786083620589
Cl           1.16938450391147        0.24614298822192        2.13053485094242
Cl          -0.11686834857003       -2.62896400127415        2.29364665434017
O            0.37453085738106        0.18804850096337       -0.69257119908923
O           -1.32678627329469       -0.20664263467621        1.28002924344440
C           -0.90183852436602        1.98867264532865       -0.15980983541917
C           -2.09268280923664        1.14293976887600       -0.38496806561456
C           -3.39104796505469       -0.72062310078720        0.34380785680240
C            1.46415706939058        2.19195614990788       -0.29708512156174
C            1.37016013059235        3.55280816967642        0.07619060437858
C           -1.04514110055710        3.29553132812104        0.19815241361149
C            0.09116258052432        4.11653611680189        0.35247655203657
C           -3.02299994806394        1.48814985977973       -1.32253582190865
C           -4.18634045187904        0.70140574444452       -1.49245550836409
C           -4.37417838247677       -0.41809686635560       -0.62921397455936
H           -2.03061602488345        3.69686295633815        0.37475510310916
C           -0.02658647970925        5.45997513795077        0.74030172564241
H           -2.86333435915260        2.35604798187495       -1.94222468438867
C           -5.14247285071561        1.01361985191991       -2.46680607782310
C           -5.55333033700063       -1.17514232000349       -0.80069895448002
C           -3.49179366839010       -1.79943447440534        1.38840519281453
N            0.33516071577247        1.46437195360278       -0.38233189517986
N           -2.28632511914057        0.05357478500837        0.40255151074416
C            2.73035804037339        1.48176688685448       -0.69958517212506
C            2.48790855107312        4.41027284876152        0.18454892711410
C            1.08585695241497        6.25516602826703        0.84848577317023
C            2.34500705662678        5.72072632523609        0.56093667869870
H            3.47248992434000        4.03620334300159       -0.02440844925541
H           -1.00983876444827        5.85286777802277        0.95204020435156
H            0.99439062179655        7.28724813079020        1.15005886756651
H            3.21853929950530        6.35057851438445        0.63937817098219
C           -6.27740985926796        0.24774280708586       -2.60584332919623
C           -6.47558370394134       -0.84688465484585       -1.76526690755294
H           -5.73620771996690       -2.02907448380414       -0.17580898877119
H           -4.97145533536855        1.86643444198063       -3.10676538417304
H           -7.01046731191203        0.49096430969422       -3.35944702508982
H           -7.36639115796035       -1.44721337734331       -1.87429061392775
C            3.24083426353104        2.00371594467174       -2.04860897485497
C            3.82933718956039        1.46665126376187        0.36704238148906
H            2.44652348381386        0.43662888321743       -0.85534602901632
C           -3.62962159310257       -3.22083126061067        0.82889034911104
H           -2.54959408593275       -1.78060960596297        1.94070818610060
C           -4.60147880178714       -1.46990567335628        2.39541867343328
H            4.11192137524490        1.42467407401781       -2.34571161466035
H            2.47652083696906        1.89126126049992       -2.81504966122084
H            3.52079719248982        3.05243157319636       -1.99744234670100
H            4.51255802708973        0.64811763251255        0.14853790776882
H            4.40905683260589        2.38371730453205        0.39374472995583
H            3.38745637794615        1.29324893517878        1.34399394903480
H           -3.04920277129246       -3.33235159972033       -0.08234640825495
H           -3.23097895679488       -3.91664551329479        1.56191532847677
H           -4.66137506452236       -3.49619813273661        0.62876245477231
H           -4.61126763380333       -2.23336614329117        3.16839173332645
H           -4.40800402378302       -0.50947186335260        2.86784647494550
H           -5.58230689807924       -1.43155085726152        1.92846759059488
