75
 energy: -118.537440404299 gnorm: 0.000409306757 xtb: 6.5.1 (b24c23e)
Si           0.53132632289558       -0.83441322979402        0.34781802197456
O            2.04346550121956       -1.24193519368245       -0.15798804439341
C            2.71515479034776       -2.46907074764214       -0.20834217789669
C            4.06466491936611       -2.25145180763367       -0.84567027281935
H            2.12191057912917       -3.17542963768542       -0.80818193739881
C            4.80786896528593       -1.12699249491504       -0.51220245077943
C            4.58996766664634       -3.17439918004182       -1.73868461652869
C            6.05578929701326       -0.92341384844406       -1.07202684934528
H            4.39048765612771       -0.41417479603358        0.18190701140675
C            5.84269482663879       -2.97408016001114       -2.29209093179503
H            4.01460397170586       -4.05064960797256       -2.00205348428259
C            6.57701331175610       -1.84788134470119       -1.96163971333716
H            6.62693066924849       -0.04381096999854       -0.81126452540471
H            6.24498011572385       -3.69715396199239       -2.98668878198657
H            7.55280091395675       -1.69081874564711       -2.39771615645806
C            2.91306056896817       -3.06522228033387        1.20302208445403
C            1.66821207269698       -3.56047899145430        1.74374595505488
H            3.63731222896439       -3.88176799451284        1.14075169117454
H            3.30820199757856       -2.28295145360686        1.85570637921843
C            0.61284465524342       -3.95657952866440        2.14546087864244
H           -0.29891953555032       -4.31289070284932        2.51994180938006
Cl           1.15011296752363       -0.29734854595210        2.27148115296110
Cl          -0.44123273102681       -2.33468721687357       -0.75821779862826
O            0.46637725478490        0.47811551889087       -0.74065988452287
O           -1.09776908709362       -0.35298409003234        1.10196391623497
C           -1.25986573822163        1.93850602294083       -0.25114438807892
C           -2.23293121709059        0.85334456970411       -0.47952764937575
C           -3.17409781279287       -1.17292805304191        0.37212237708574
C            1.02115588580594        2.67855079546408       -0.13360599244954
C            0.58496119100683        3.97984560013622        0.19703237657781
C           -1.72098214718650        3.18289337922522        0.06002165384828
C           -0.81420410872572        4.25062808324158        0.29771171037649
C           -3.24462067752413        1.00206431202888       -1.38097251489795
C           -4.26702849738833        0.02408690446795       -1.47175311745419
C           -4.25074945929352       -1.05566370413518       -0.53842014711564
H           -2.78175140057645        3.35231738418144        0.14723232653746
C           -1.27374256947735        5.52600212895260        0.62143669121196
H           -3.26821235737274        1.86843972484587       -2.02161931133219
C           -5.29540390314635        0.13979239120202       -2.40989105902998
C           -5.33752061388839       -1.95610181507021       -0.58733152382385
C           -3.07037919438998       -2.17742022750456        1.49056788542355
N            0.07317184733620        1.71977129576875       -0.35639169070545
N           -2.19131466421889       -0.24006728856404        0.32315275332246
C            2.45442303091836        2.25083783028725       -0.30549801492959
C            1.45975677784094        5.06485595216034        0.43699807804580
C           -0.38581348942365        6.55938981260497        0.85179822367595
C            0.97978874108897        6.31482871665307        0.75549735190185
H            2.52325146693225        4.92709676428984        0.37389199476958
H           -2.33846605135344        5.69307895793106        0.68972126900504
H           -0.74740716860574        7.54406684115726        1.10378563742066
H            1.67898223193677        7.11857083662631        0.93364193062137
C           -6.32460125635371       -0.77770609254788       -2.44337300425431
C           -6.34092777691557       -1.81742818493501       -1.51839806476568
H           -5.39458212659106       -2.77236024774631        0.10827520343792
H           -5.27183478302655        0.96471342675294       -3.10634716595429
H           -7.11462925570496       -0.68585791664976       -3.17255571718555
H           -7.15366767734220       -2.52855878954986       -1.53011098663653
C            3.13438701027561        2.96898068638313       -1.47945213985819
C            3.25833505487026        2.35473400394494        0.99671773623084
H            2.44084108012704        1.19190370866020       -0.57182740091890
C           -3.04401671348626       -3.64377871366977        1.04915237936095
H           -2.11019023369649       -1.98763059049104        1.97883255214971
C           -4.16154700370236       -1.91304998308828        2.53876211545486
H            4.11434741003553        2.52758163343217       -1.64440124560038
H            2.54703950756931        2.83895307808260       -2.38566971549535
H            3.26082708954696        4.03277498415080       -1.30601224368158
H            4.27533093216204        2.01616389844128        0.81234943472490
H            3.30104077738512        3.36620338496184        1.38640906877350
H            2.81239182026229        1.71494702653205        1.75446312917315
H           -2.27955986449000       -3.78736237659668        0.29097792055203
H           -2.80470441106305       -4.26273743435477        1.91155931885944
H           -3.99344681852768       -3.98629094990105        0.65258297071327
H           -4.02021233093737       -2.58468936975435        3.38211807256332
H           -4.09495211585904       -0.89012519330028        2.90311267240540
H           -5.15839731587734       -2.06813019272323        2.13685098439862
