75
 energy: -118.541883985958 gnorm: 0.000862866360 xtb: 6.5.1 (b24c23e)
Si           0.25195689569745       -1.46026557677102        1.15790372989736
O           -0.69886571964034       -2.31072596220556        0.16151869071608
C           -0.78403982538782       -2.42252060876382       -1.25018617271662
C           -2.03990437246007       -1.71262256859807       -1.69417859439106
H            0.07977799617451       -1.92816551099396       -1.70084156393355
C           -3.29600524793803       -2.28849757885189       -1.55358493978644
C           -1.94660656455822       -0.41523546897074       -2.18280806366305
C           -4.43287537208842       -1.58212420877680       -1.90668737167962
H           -3.39253110481825       -3.28776885085677       -1.15831619236506
C           -3.08212326803372        0.29103378915221       -2.53598210661335
H           -0.97286013425925        0.04283916898996       -2.28296306421823
C           -4.32958271767857       -0.29242790544882       -2.39817161786445
H           -5.40390369374311       -2.04180441457940       -1.79381176773234
H           -2.99491674995947        1.29824817685717       -2.91583926914696
H           -5.21678532885012        0.25960372887253       -2.67055114238848
C           -0.73914459148095       -3.91496588464459       -1.60708485702090
C            0.59586872783428       -4.42710813596461       -1.37783345663185
H           -1.01938766207104       -4.04697780179766       -2.65542888661587
H           -1.43838487180927       -4.46082712856236       -0.97053748414372
C            1.71722846231120       -4.78289498952357       -1.15946003373829
H            2.68463705083235       -5.14192523382642       -0.97203910503164
Cl          -0.61370130040713       -2.45616749025531        2.81022473728112
Cl           2.18487148474483       -1.79124063214024        1.78684125257636
O            0.92058621341225       -0.52733665729241       -0.37303931269705
O           -0.23923912328589        0.05779030429652        1.79463954367002
C            1.33360925524935        1.64153069229600        0.21685771744862
C           -0.12979300677420        1.80683630095075        0.27183045842958
C           -2.24829737241048        1.07816971091076        1.13012816132171
C            3.12675925424056        0.23930062219831       -0.50998013030642
C            4.04123421659571        1.29576514131571       -0.28596742699211
C            2.17829244998679        2.68570582626234        0.45538490419737
C            3.57098289781066        2.53476803506518        0.24296829417537
C           -0.72402189833266        2.78214313253186       -0.47403336658515
C           -2.14033152602943        2.89368207446791       -0.51616382903032
C           -2.90852311561613        1.99014188678887        0.27926126640625
H            1.78268276304137        3.62624112016578        0.80217324064708
C            4.46102714404390        3.58234306120624        0.49528300026255
H           -0.11647699426907        3.43740754798397       -1.07693174886400
C           -2.76846113450011        3.84020347820152       -1.32359247363911
C           -4.31390979215268        2.06748380992651        0.15791361292854
C           -2.90276003041181        0.24034716469407        2.19461031251336
N            1.82218719757052        0.44983837078581       -0.21213992114253
N           -0.88644461377523        0.99700849948158        1.04994822422494
C            3.44985221647397       -1.07500568529227       -1.17290829914860
C            5.42086655375953        1.19972475307836       -0.56622584210661
C            5.80634392799361        3.44227225320538        0.22722037706439
C            6.27554928666979        2.24760151135768       -0.31153925079687
H            5.82234193326276        0.29471517159998       -0.98032830326305
H            4.07497084402340        4.50551880150831        0.90108662123758
H            6.48953339807643        4.25337091793809        0.42667136684025
H            7.32691019275517        2.13917790276609       -0.53298384109169
C           -4.14784550318427        3.90815862918860       -1.38900311214660
C           -4.90920898022440        3.00507269074891       -0.65536240714552
H           -4.93818302954998        1.37111761418715        0.68676519313817
H           -2.15912422213153        4.51780338694834       -1.90363003345171
H           -4.62813712532217        4.64569487445548       -2.01327709047938
H           -5.98668576202836        3.03712438928354       -0.72425633265002
C            3.70023059233004       -0.85166310937912       -2.67137707541555
C            4.58806049467064       -1.87535524017916       -0.52775421176600
H            2.55134940057702       -1.69013615210730       -1.08486087698308
C           -3.68454926999069       -0.94642312934666        1.62169328904859
H           -2.09919019755859       -0.18974668558104        2.79783979475839
C           -3.74898555843583        1.08362669940565        3.15755646161013
H            3.87754382759097       -1.81019018664013       -3.15267381460877
H            2.83374078515403       -0.38910576263428       -3.13983228590523
H            4.56199974151575       -0.21038418629161       -2.83870467953297
H            4.40040394140408       -2.93432001103559       -0.68125121464276
H            5.55502182817645       -1.64875833012720       -0.96802033446147
H            4.62644890978045       -1.69405767872392        0.54138251988931
H           -3.00981165548207       -1.60150609016609        1.07865133076037
H           -4.11765896012058       -1.51377191697197        2.44116469226430
H           -4.47697033768779       -0.63602602160403        0.94669241049646
H           -4.00672663821885        0.47311616353300        4.01936696939952
H           -3.18077197533910        1.94329497836476        3.50602848279982
H           -4.66862153574196        1.44267241393235        2.70808024853082
