75
 energy: -118.542270491574 gnorm: 0.000851038079 xtb: 6.5.1 (b24c23e)
Si          -0.26543259728325       -1.53427979824467       -0.47974559364519
O            1.34090735145101       -1.47023678463342       -0.22934762725366
C            2.23847037044292       -2.41670058031595        0.29675681400570
C            3.18417924954800       -1.76676452114752        1.27600192896169
H            1.67091991030495       -3.20295647621246        0.80910778695363
C            3.29261091464547       -0.38791791845376        1.37095575143441
C            3.98646844611401       -2.56159462357584        2.08743241285135
C            4.19236301395147        0.19333455871171        2.24731956125919
H            2.65936319753323        0.23176977147017        0.75829129516722
C            4.88757295063826       -1.98273002185333        2.96144971075441
H            3.89649421763565       -3.63726641424543        2.03897602411137
C            4.99695846683630       -0.60351870783040        3.04123070263744
H            4.26116699594773        1.27057176608172        2.30363097199560
H            5.50644106317637       -2.60966141537068        3.58639114939327
H            5.70257488335198       -0.15460904005428        3.72437658848255
C            3.04084388533392       -3.06872677532131       -0.85028056734495
C            2.15329735746369       -3.65688892641941       -1.82960278606858
H            3.66098539869448       -2.30904113738380       -1.33037551839206
H            3.69134115747896       -3.83892291955745       -0.42973128650246
C            1.37983607616665       -4.10884577349596       -2.62250543068402
H            0.69972974314602       -4.51031133625225       -3.31260797268652
Cl          -1.27080310512715       -2.09383076684984       -2.18809513656447
Cl          -0.64463570361698       -3.42094072000091        0.50162420036103
O           -1.08084109383400       -0.77196643390838        0.83646324925598
O           -0.17716424625289        0.06965020238448       -1.35561581415943
C           -1.61423360164107        1.44139674080147        0.40955976368149
C           -0.18300877862494        1.73466366559707        0.22547449577699
C            1.70661855321107        1.46813943936013       -1.20950778309340
C           -3.35041708450033       -0.16212241296743        0.80850213266343
C           -4.32343289909686        0.84348535231785        0.61787172852026
C           -2.51886023860543        2.45505851032576        0.29563707771906
C           -3.91077112576370        2.19018435528492        0.38193890353295
C            0.43489769741794        2.71813873308469        0.94130044194849
C            1.75585993327332        3.11602944378999        0.61125668984871
C            2.36838526342060        2.52160709716722       -0.53335130814032
H           -2.17507400406509        3.45625757945846        0.09316389789287
C           -4.85175190691752        3.20716195878711        0.22152761728760
H           -0.08970238797818        3.20396795851763        1.74744652499502
C            2.42363982395540        4.09834735816811        1.34440798560617
C            3.62906589226027        3.02524426759248       -0.91884075923032
C            2.19671072433351        0.76358880475997       -2.44646077333265
N           -2.03591693142731        0.18137367762757        0.67562958626039
N            0.47521045678978        1.09789030213731       -0.77462555688113
C           -3.63119051525604       -1.58720887728011        1.20053835253441
C           -5.71560928617219        0.59924404130109        0.64274220902617
C           -6.20361913453035        2.93095426912917        0.27293312538249
C           -6.62314990691874        1.61946639711025        0.47467088364833
H           -6.08509380517177       -0.40024228520244        0.77803630534905
H           -4.50390841480131        4.21502777854911        0.05012266664202
H           -6.92744852882075        3.72115887375663        0.14767711130935
H           -7.67945835747069        1.39582110066428        0.49715815748685
C            3.67780828790487        4.53140242611349        0.96238788990089
C            4.26308438628472        4.00095660098427       -0.18244668463268
H            4.11029576401831        2.65111858150982       -1.80203271465447
H            1.93827274842720        4.51767281881195        2.21303402668884
H            4.19252024704168        5.28557188535513        1.53740640167955
H            5.23107246943942        4.35810245781518       -0.50125174632807
C           -4.40403985754584       -1.68870107716757        2.52221980194647
C           -4.28964817790507       -2.38934647101953        0.07152769775498
H           -2.66580364976199       -2.06207491857835        1.38620631037754
C            3.64913166737465        0.27187208529724       -2.40578278681723
H            1.56435071713493       -0.12005138286960       -2.55776321795740
C            1.94763676621284        1.65938027893185       -3.66857697017856
H           -4.39935963309964       -2.72567697599403        2.84817925546148
H           -3.91756991761082       -1.08867025575876        3.28831862879956
H           -5.43539254734447       -1.36277822231009        2.43834733364576
H           -4.36399276932462       -3.42921521189864        0.37811394852342
H           -5.28288624572593       -2.02701653740286       -0.17457633173620
H           -3.67578497774267       -2.34666123192745       -0.82467583114523
H            3.96535922319164        0.06308560381412       -1.38694486112619
H            3.72670169781240       -0.64209524622550       -2.99084636069703
H            4.33745557142485        0.98949689169462       -2.84487758205849
H            2.26686927281322        1.14116158584352       -4.56912107342575
H            0.88810892355524        1.88613985899548       -3.76154744833235
H            2.49674969278740        2.59499811862992       -3.58729157645009
