81
 energy: -124.850839933500 gnorm: 0.000511364794 xtb: 6.5.1 (b24c23e)
Si          -0.29805214159962        1.30689995081214        1.12098425374133
O            0.76295404950641        2.16762827527055        0.25330506892228
C            0.93023611481923        2.40225105108000       -1.12741744395832
C            2.23278664928513        1.80420022427443       -1.59137228044602
H            0.10147975690710        1.95266306565293       -1.67657279976562
C            3.39167541332787        2.00570571737957       -0.85299441351106
C            2.29421806263786        1.06980219502722       -2.76719120914557
C            4.59910832511797        1.50392373532557       -1.30229484134689
H            3.33412369075071        2.55328746090073        0.07543706067256
C            3.50314941463181        0.56833660856198       -3.21585982569113
H            1.39159611066758        0.89726709035157       -3.33654907099954
C            4.65904578732607        0.79427217994505       -2.48979957903877
H            5.49920059256746        1.67465612207989       -0.72972654899519
H            3.54324992699043        0.00177560872561       -4.13453813765484
H            5.60397603232646        0.41402738048881       -2.84790592619784
C            0.92232601130732        3.92609458100420       -1.35753822977647
C           -0.34314128120728        4.49030529908142       -0.94075949539081
H            1.09712815120474        4.12906802025547       -2.41734449347643
H            1.72591266011182        4.37514763944747       -0.76917716942800
C           -1.40085631765469        4.90382492225258       -0.56382442459047
H           -2.31738981674758        5.29026029436425       -0.23120681431240
Cl           0.51025678912501        2.19416572504001        2.88269477571665
Cl          -2.24328431779806        1.63219053196245        1.75194255364044
O           -0.98763762469556        0.58275280723309       -0.47686179384292
O            0.17688646375501       -0.25003655112035        1.64950292969577
C           -1.27912888231887       -1.63096649964704       -0.11944309133470
C            0.19749395502736       -1.68592628690195       -0.16164307680482
C            2.23870239445749       -1.24126237872158        1.01187303495163
C           -3.19817765668736       -0.28290217865898       -0.55531517674333
C           -4.01802359774639       -1.35795851691947       -0.10116163021310
C           -2.02304025263756       -2.73727870105498        0.13867502386782
C           -3.43196464032249       -2.61380001839132        0.23022688273861
C            0.84838704069391       -2.34944822953843       -1.15153996526361
C            2.26914357582202       -2.30005778982336       -1.21016500095059
C            2.96545330343006       -1.69709689254309       -0.12027841924392
H           -1.54137911830232       -3.68239757868689        0.32853558751356
C           -4.22394887944380       -3.69496482104365        0.62762209522089
H            0.28992463506817       -2.85579388344964       -1.92181855392719
C            2.96326409285669       -2.83673807557322       -2.29321572553450
C            4.36817011247170       -1.59091991447492       -0.25313679853254
C            2.84995233811805       -1.06776112991454        2.39481165490642
N           -1.85945456602295       -0.43654698190999       -0.40772055692489
N            0.88687257447055       -1.10099896321212        0.84795937390115
C           -3.79765872825309        0.88084836503310       -1.33726914923677
C           -5.41856519875636       -1.25596769819870        0.05673135091400
C           -5.59020223478867       -3.56307756034913        0.73656347643605
C           -6.17567599588048       -2.32949701981386        0.46498375726962
H           -5.91168903550934       -0.31614457205470       -0.10287196901891
H           -3.74065253787201       -4.63286688074102        0.85740644876754
H           -6.19857800057224       -4.39966500899260        1.04342080458612
H           -7.24261159978927       -2.20900411687600        0.58003687729383
C            4.34103018286737       -2.77797986795882       -2.34909961827384
C            5.03149998847156       -2.12994991425592       -1.33164369612142
H            4.93850337309792       -1.04042213263897        0.47330309781768
H            2.40182959098411       -3.29963704645073       -3.09142821294762
H            4.87371019920094       -3.20912353743022       -3.18253566180016
H            6.10625584136727       -2.03906093275902       -1.38814756395835
C           -4.57891462345714        0.25590610657453       -2.51641010612291
C           -4.72662649334868        1.75442186667580       -0.46178941196103
C           -2.76408088544081        1.80618865635924       -1.98970297964432
C            3.58438671826894        0.27597776533090        2.51281425420722
C            1.81018653393892       -1.13186389797343        3.52666528105850
C            3.79872092384890       -2.25439442368024        2.66897398338516
H           -5.04790213279651        1.04900176130658       -3.09381603031149
H           -3.89667603712233       -0.28283412410863       -3.17206550794708
H           -5.34858077182241       -0.43615080519915       -2.19220819080051
H           -5.76114342945819        1.68495679650857       -0.78976360483106
H           -4.65664809327561        1.48025091835979        0.58564228233453
H           -4.42764126065682        2.79562074523721       -0.53792667013927
H            2.87036096795538        1.08972837322492        2.41994794779092
H            4.05207110167442        0.34797199674063        3.49162738226607
H            4.34778167496196        0.39785216067860        1.75078424936711
H            4.25498534705635       -2.12197972693446        3.64695259644095
H            3.22942114516076       -3.18215286820032        2.68156643828912
H            4.59178454907532       -2.36085911988360        1.94005472847634
H           -3.28873114544741        2.49499571453598       -2.64983998397553
H           -2.22694935377120        2.39441218714973       -1.25329088603075
H           -2.05083775337519        1.24634974769288       -2.59127434254404
H            1.24792771172496       -0.20973667012691        3.61851918298318
H            1.11582902738561       -1.95686529078079        3.37998027339541
H            2.33147750275503       -1.29292904093886        4.46753337013669
