81
 energy: -124.849213825533 gnorm: 0.000316444684 xtb: 6.5.1 (b24c23e)
Si           0.56307041832995       -0.99824377311431       -0.32615929484633
O            1.89356993581202       -0.10660059773390       -0.02947168358112
C            3.07372487033973       -0.33376231016852        0.71301003777874
C            3.80114688493206       -1.57466024134986        0.24257473648354
H            3.70806326466659        0.53355003773965        0.46836761942511
C            3.86565391310654       -1.80691131386806       -1.12684396913923
C            4.42245627633835       -2.47112145427458        1.10036477430037
C            4.51000091022450       -2.92033356892178       -1.62998640774277
H            3.38195554402414       -1.11626630002784       -1.80165148986569
C            5.07637476228336       -3.58202460832857        0.59590899121662
H            4.38688269955030       -2.32859905652614        2.16842759853187
C            5.11990998752581       -3.81385514086975       -0.76689944741898
H            4.53135402330763       -3.09056115845996       -2.69620105111355
H            5.54563942974814       -4.27634703383588        1.27745556214971
H            5.62103788000511       -4.68839153553247       -1.15463957951511
C            2.77307997206462       -0.28454093600336        2.21807726452665
C            2.10780297123641        0.95703642875112        2.54880554746583
H            3.70911385224271       -0.34334101060973        2.77765188546654
H            2.13088403384157       -1.12600159769369        2.48453808738561
C            1.57322708607971        2.00167381440301        2.78323564388034
H            1.10426479439950        2.90935975861953        3.01960294335329
Cl           0.17448237996649       -2.09730310327566       -2.02881998103811
Cl           1.15299535805856       -2.77322757345785        0.79550539941908
O           -0.67832983687438       -0.76313365315286        0.83449520477520
O           -0.05443828710967        0.38158912189587       -1.33999226879666
C           -2.22603332664244        0.73497917235322       -0.02033370642104
C           -1.18125645757669        1.77541574420775        0.04080921178296
C            0.83142183536580        2.55667643391382       -0.96929371612675
C           -2.91489038287984       -1.48291159353331        0.55135967266355
C           -4.04957444207320       -1.32444900366200       -0.29045662808384
C           -3.43525641049212        1.01878844724379       -0.57557680457969
C           -4.35677527233397       -0.03553445576663       -0.81692444736574
C           -1.33292470695621        2.90083190670220        0.78639550076460
C           -0.29544483204833        3.86644114263635        0.79557273501882
C            0.81058618720823        3.67599285641016       -0.08416641551976
H           -3.64802771992036        2.01614041509001       -0.92397701147062
C           -5.51310632914660        0.17085611752012       -1.57015492669056
H           -2.20852891201210        3.03129297112674        1.40086533753833
C           -0.36009919567582        4.97517067244819        1.64481891186844
C            1.84324761664248        4.63925750328314       -0.00616453439286
C            1.77460083601702        2.52274997633913       -2.16592575870555
N           -1.97063810691360       -0.49378553314398        0.48888272825106
N           -0.11025824226108        1.60517873164428       -0.77443428430553
C           -2.79202445728018       -2.58115951385312        1.59622268025453
C           -4.90224001805045       -2.38357753787672       -0.67185107786946
C           -6.35816547394046       -0.87886358264073       -1.86450353381281
C           -6.02486734841533       -2.15992704949072       -1.43580525800296
H           -4.65052958626206       -3.39697726748157       -0.41354699395727
H           -5.72530451187221        1.16525958723336       -1.93408672278451
H           -7.25219377709614       -0.71441485947437       -2.44574145054848
H           -6.65098171846324       -2.99533920131921       -1.71207492670281
C            0.66054810454149        5.90102005638845        1.67533009773467
C            1.76597147817973        5.71307186487219        0.85217975782050
H            2.73288686512878        4.53576018438240       -0.59857459752371
H           -1.22221293322040        5.08480811552810        2.28645306874020
H            0.60945862821764        6.75248455082370        2.33621911828994
H            2.58222004807539        6.41936847963253        0.88580982230600
C           -4.16900772369306       -2.78091383706033        2.26381563497809
C           -2.28378145130767       -3.89392692510454        0.98221245099888
C           -1.84335190218461       -2.19732203031931        2.74434513767826
C            3.24876746848931        2.42574217841662       -1.70562930432033
C            1.52683588406147        1.39046943629794       -3.17081898866128
C            1.51445986383492        3.81907044905060       -2.96879158236025
H           -4.08141613825610       -3.54679802107119        3.03054218324164
H           -4.48605809693530       -1.85516477220251        2.74073262409068
H           -4.94612717656612       -3.08589652643846        1.57448889135464
H           -2.24058966592067       -4.65939911338751        1.75294444045804
H           -2.92009209460653       -4.24775029074460        0.17733971853562
H           -1.28179827689163       -3.75559758571893        0.58708511670442
H            3.33656432690182        2.49239632098432       -0.62540529194370
H            3.66759857862059        1.46866936508782       -2.00502615960808
H            3.85247929660559        3.20870306428659       -2.15956124088054
H            2.19239388713583        3.85759697430444       -3.81815651949153
H            0.49515277385740        3.81341866165260       -3.35075347822809
H            1.64564808458045        4.72131487265522       -2.38212475219167
H           -2.01843284651178       -2.86951271743269        3.58113353378031
H           -0.80284439669828       -2.29376608099537        2.45798812254305
H           -2.02440734965196       -1.17914159751419        3.08347075499288
H            1.75947201015732        0.41740585411843       -2.75558322711814
H            0.49635237056327        1.37443693889346       -3.51585383520365
H            2.17246301254420        1.55526285651619       -4.03217120063976
