81
 energy: -124.849718826521 gnorm: 0.000438910917 xtb: 6.5.1 (b24c23e)
Si           0.20265710135038        0.90768860816975        0.63542220149805
O            1.12830512268049        1.46023683372744       -0.57295613889317
C            2.18236518417540        2.39126470320654       -0.57991010275189
C            1.68724462290688        3.79055757557416       -0.31970796296752
H            2.91259112544145        2.11743040725659        0.19144494436721
C            0.43077784265202        4.17799061300436       -0.76262219399558
C            2.48220463823467        4.70401478906726        0.35811829000975
C           -0.03376410571799        5.45741270976259       -0.51792835422663
H           -0.18673436099485        3.46245126985091       -1.28476138717243
C            2.02207270795524        5.98709369271773        0.59267976740962
H            3.45597464108548        4.40190981585996        0.71506439170639
C            0.76267799834531        6.36522248840211        0.15845227676196
H           -1.01967679518687        5.74464079759853       -0.85326272086740
H            2.64408100245267        6.69087844856961        1.12596348610990
H            0.40047786543136        7.36409611755319        0.35271511378090
C            2.84732327119569        2.30478155144997       -1.96676066747734
C            3.30283086784782        0.95691157443446       -2.23039209183132
H            3.68745421003555        3.00240129019706       -2.00361252973584
H            2.11339665617017        2.58902205035804       -2.72502268474657
C            3.64351300806989       -0.17445312266758       -2.41947419787192
H            3.94279997735909       -1.16239845356720       -2.60632891306579
Cl          -1.55915203337695        1.69297717467388        1.42310066836628
Cl           1.35385337739958        1.81074518717799        2.25896517280741
O           -0.70213527852327        0.14619413558830       -0.73493178030897
O            0.51155466428651       -0.60211110473942        1.37673288370429
C           -1.56574953962566       -1.79287060961866        0.09612404488545
C           -0.18663845569684       -2.30390871431656       -0.03999953539410
C            2.09664685362050       -2.19569720046224        0.66040884734281
C           -3.04908732136785       -0.07609153267736       -0.64870180318672
C           -4.08388146101489       -0.66553152983213        0.13135027618501
C           -2.57780099340366       -2.52208322197705        0.63418960329037
C           -3.86021457594449       -1.92546232274229        0.76058855886224
C            0.07722308617633       -3.32944450325855       -0.89636375064121
C            1.42729153914045       -3.65618733821698       -1.19802397643548
C            2.45379886633529       -3.01708250588294       -0.44297658479274
H           -2.39073392157709       -3.50721816968204        1.02871342621688
C           -4.88013410868931       -2.55102573016801        1.48285225460456
H           -0.72923530744222       -3.81445543915683       -1.42139302362068
C            1.74892295490976       -4.54588922398445       -2.22394484565477
C            3.78261606614147       -3.22467174682216       -0.87221885548345
C            3.00841815830782       -1.93614170217077        1.84976902428313
N           -1.80265308631594       -0.57912045003662       -0.46190154634044
N            0.80845079995935       -1.73766985585586        0.68025539645075
C           -3.30051462047606        0.91364751315697       -1.77942875497259
C           -5.33224755740299       -0.05060372893524        0.36659547787430
C           -6.10511713364046       -1.94209864463386        1.64246610825494
C           -6.31164341758665       -0.67522881048737        1.10265314669405
H           -5.51093053720758        0.95110896434783        0.01881885544844
H           -4.68279679936043       -3.51407169181590        1.92979781264403
H           -6.88864545963966       -2.42870731574639        2.20246913221319
H           -7.25124746540537       -0.17026429422221        1.27059972608857
C            3.06535789882244       -4.78260306930537       -2.56460258426429
C            4.07437837349492       -4.08953010120125       -1.90382876362447
H            4.58350929856720       -2.65725695756718       -0.43032491315482
H            0.94820960365449       -5.03313532364769       -2.76018387607305
H            3.30873207538425       -5.47399448475581       -3.35644972843723
H            5.10244946381343       -4.22216338640759       -2.20876412267291
C           -4.54668225575529        0.44466308097089       -2.55992147739009
C           -3.48784091679131        2.35261594612283       -1.27998266713945
C           -2.16125295738220        0.91995482039881       -2.81243461402593
C            3.93203677040297       -0.73743643484119        1.58659309474993
C            2.21439192339675       -1.66446466782637        3.13964283980566
C            3.82645773350140       -3.20993119981074        2.14858060829287
H           -4.70899674726706        1.11245168211884       -3.40256341994498
H           -4.38737431573282       -0.55976118185317       -2.94765514560978
H           -5.44937460777581        0.43433206179797       -1.96218296706852
H           -3.66749512276008        3.00833491473756       -2.12912858116998
H           -4.32041927771806        2.44384471697344       -0.59077203713228
H           -2.59493246946127        2.68454618844181       -0.76009469401349
H            3.34826064757753        0.17869251149748        1.58990692149375
H            4.67605300178940       -0.66815530221047        2.37629050421529
H            4.43925452384843       -0.81436677516344        0.62882857096143
H            4.38245062262604       -3.06236781317535        3.07121069874288
H            3.15782603576874       -4.05755672084397        2.28635464887561
H            4.53820243397446       -3.46465213867265        1.37429504261972
H           -2.48719043151919        1.47685420850306       -3.68849615994345
H           -1.26197360780060        1.38697882401108       -2.42840070012427
H           -1.91188097176822       -0.09171627346267       -3.12670567887453
H            1.78423719146137       -0.67029557709329        3.15644677151146
H            1.41856169397230       -2.39584705108055        3.26866069522843
H            2.88808751560660       -1.74231384472404        3.98953224870852
