81
 energy: -124.852638366277 gnorm: 0.000748033774 xtb: 6.5.1 (b24c23e)
Si           0.16883510274139       -1.23195419386710       -0.20012205088993
O            1.63950021096741       -0.67797433765304        0.23730829380746
C            2.58533163237275       -1.18717913428735        1.14433651346410
C            3.48569415355535       -2.23156423568229        0.52693770853894
H            2.05954272090003       -1.64584860173406        1.99136604565062
C            3.45517689929114       -2.52984125600865       -0.82593908181977
C            4.36771906755971       -2.92483636328099        1.34941195367121
C            4.30110062820667       -3.49092219273996       -1.35296556465283
H            2.75211941381715       -2.02966079798152       -1.47325006978627
C            5.21614836467169       -3.87955086551280        0.82280197074991
H            4.37655621971420       -2.72528474148956        2.41174276414095
C            5.18922537187812       -4.16202409046138       -0.53319791516678
H            4.25843847954806       -3.71579390142428       -2.40825354371178
H            5.89538178172563       -4.41093137817161        1.47334368607100
H            5.85023038046533       -4.91045229936049       -0.94457812282139
C            3.40211716104464        0.01270495799351        1.66537606151635
C            2.58060495277046        0.84944138096790        2.51191515503756
H            4.25966772229931       -0.35250282895119        2.23411702482471
H            3.76291996403390        0.59158471132755        0.81277637459824
C            1.85499968782659        1.49250135362385        3.21274043603359
H            1.24308792868046        2.07656005583656        3.83201772858077
Cl          -0.32941423542568       -2.21295524416203       -1.94613666507322
Cl           0.28408390506075       -3.08578210503852        0.93060514595646
O           -1.05043832926941       -0.72886483479602        0.89154632871772
O           -0.03926771196089        0.24187316749542       -1.22603583822633
C           -2.04639317478967        1.21352973950821        0.10222548382031
C           -0.73492002405681        1.88510733438361        0.19387932254260
C            1.37829878128916        2.11002077002339       -0.88825697873196
C           -3.37362703697277       -0.73804718365363        0.48818161246554
C           -4.38127666155517       -0.19296897436429       -0.35495416327141
C           -3.10836721267156        1.88532415823658       -0.42436336202497
C           -4.29181071959735        1.17253652439580       -0.75390145366601
C           -0.51868640575601        2.97365087169200        0.97950020818501
C            0.78235734228910        3.53814015447511        1.02663490450150
C            1.75504247781027        3.06599091558381        0.09794962096959
H           -3.00735985278997        2.92347089030850       -0.69528412817158
C           -5.31973503782271        1.76844870168028       -1.48648757626759
H           -1.30365184381082        3.35057622313233        1.61433584569475
C            1.10966528490234        4.52584621339074        1.95926596736686
C            3.06724016642302        3.56267300240612        0.24801980559959
C            2.10533988152231        1.93812320081046       -2.21641522453891
N           -2.18249179511776       -0.06752296106900        0.51852686001265
N            0.21918975372283        1.44355265053702       -0.66172574062300
C           -3.60796606242802       -1.90801047915494        1.43110391563594
C           -5.47279935309166       -0.93206520559779       -0.85867622218896
C           -6.41369204623262        1.03151021024809       -1.89021411107663
C           -6.46152299248862       -0.32901670195973       -1.60290893597407
H           -5.51260311506440       -1.99754361815267       -0.71443432291392
H           -5.23311181327080        2.81221154838034       -1.74957050858645
H           -7.20768164803331        1.49698251932370       -2.45331464397305
H           -7.28135250979870       -0.92519265241598       -1.97507347461195
C            2.39281203248654        5.02034881204816        2.04192218546614
C            3.37381102270416        4.50899004150934        1.19835026594544
H            3.86705433645856        3.16527437708307       -0.35176243207500
H            0.34050445793215        4.88141580794973        2.62921428130660
H            2.64190096655631        5.77822736385622        2.76847236927125
H            4.39243836214010        4.85507913964766        1.29155158846491
C           -5.03314591188381       -1.80470602966275        2.01302579988517
C           -3.40361484906656       -3.25136109794947        0.71531540863307
C           -2.67576125825012       -1.86791827298144        2.65478269099276
C            3.37044500359094        1.07881968894846       -2.07572990438135
C            1.22205266244374        1.29021309150237       -3.29562274064185
C            2.45051604040389        3.33702055352101       -2.76781330080187
H           -5.17975318808871       -2.60982573803872        2.72875733776622
H           -5.15173927058917       -0.85744003823647        2.53598653752897
H           -5.81531348392906       -1.87712455090267        1.26846300999751
H           -3.62270281887047       -4.06434218731412        1.40282379714498
H           -4.04210024725470       -3.35150287448389       -0.15729002806463
H           -2.37053972714230       -3.34996248859339        0.39470249346908
H            3.12885530021632        0.15746779775276       -1.55575770317085
H            3.75172402362232        0.82908083355027       -3.06313721984019
H            4.16034390919934        1.58878755343242       -1.53182124195749
H            3.00400361108881        3.22449447391555       -3.69704123791482
H            1.53533597556095        3.88633067809342       -2.98023197889904
H            3.04786922991203        3.93356414818887       -2.08902894811117
H           -3.07588685214295       -2.52803689359398        3.42063493858049
H           -1.67574680495191       -2.21150716737336        2.41815787889171
H           -2.61640864971048       -0.86370473530649        3.07037567502900
H            1.09674596478397        0.22480368406660       -3.13994379671137
H            0.23650357813279        1.74999394424010       -3.32776101652103
H            1.69415372956498        1.43584800833942       -4.26510974867065
