81
 energy: -124.852316545431 gnorm: 0.000563293905 xtb: 6.5.1 (b24c23e)
Si          -0.22660712834175        1.13631217938209        0.89841536000777
O            0.83510233176493        1.70714342603803       -0.17988909960906
C            1.83918223234654        2.68536304393452       -0.13792999501758
C            3.12560757967268        2.09207989973737       -0.65558326472422
H            1.97202668218665        3.03409540228012        0.89388181304264
C            3.09120885821803        1.08750047990939       -1.61358374697170
C            4.35174581812015        2.54885602795799       -0.19108721647702
C            4.26676825330853        0.54451991614409       -2.10013380826200
H            2.13496328363424        0.72806272117839       -1.96213943732396
C            5.52723605224469        2.00667938056025       -0.67986039095007
H            4.38237615934871        3.32343280874922        0.56134862512201
C            5.48721860157451        1.00366824997261       -1.63446436366060
H            4.22910283250283       -0.23893408918762       -2.84303694631251
H            6.47753993847942        2.36417332896661       -0.31120673273408
H            6.40606951266701        0.57975090922624       -2.01285139366939
C            1.40128455362300        3.87302503855197       -1.01991768374575
C            0.16351609329427        4.43322369964012       -0.52180932656134
H            2.18701716125300        4.63213814243136       -1.01612949871091
H            1.25477872726605        3.51374051509687       -2.04212503732593
C           -0.87215633134893        4.83946529148182       -0.08160677937380
H           -1.77040889224837        5.21861446639183        0.30500035221468
Cl           0.71038144740810        2.00628847617251        2.66152131844304
Cl          -2.09531620744301        1.74789763659003        1.57659406695588
O           -0.97812414042891        0.44401696801299       -0.60804154295663
O            0.08373732409531       -0.41657462382565        1.55075119742084
C           -1.74059656055540       -1.61737663165119       -0.02775427902509
C           -0.31235139457020       -1.99049357968773       -0.09954603093751
C            1.89259180421871       -1.74056837729724        0.79521964954493
C           -3.30241085647741        0.05334407511100       -0.72138623435995
C           -4.34236160271472       -0.70087447124696       -0.10534746859411
C           -2.72302609862895       -2.47417493258378        0.35158925017208
C           -4.05928576308810       -1.99796630548444        0.41582207529209
C            0.12075659235033       -2.86384686060948       -1.04955052508245
C            1.51735507137479       -3.01120829277422       -1.27438895467240
C            2.41312738445892       -2.37402054749750       -0.36621836385762
H           -2.48300289892332       -3.47613851430518        0.66717144735717
C           -5.07511667509603       -2.77954416882252        0.97327267706689
H           -0.58851511551201       -3.35381970607536       -1.69628166100631
C            2.00361921296295       -3.72308374171280       -2.37128086519465
C            3.78328949384670       -2.39529616444748       -0.70392721136705
C            2.68650973143846       -1.54772083166666        2.07779125737549
N           -2.03825954586226       -0.37405148790636       -0.48487139315746
N            0.56146009507475       -1.42820841484434        0.76677768055181
C           -3.55392384223860        1.14738132105228       -1.75213657318854
C           -5.66035875940463       -0.22439726526559        0.06431668602912
C           -6.36108989183670       -2.29687979798880        1.07306337944929
C           -6.63752239549094       -1.00339633883015        0.63843893498573
H           -5.90634935897036        0.78637859952966       -0.20725398079910
H           -4.82791166576691       -3.76459022885642        1.34024735688395
H           -7.14138097830374       -2.90401372776748        1.50520953889575
H           -7.63210613144658       -0.60070525989949        0.75969986375456
C            3.35872363903478       -3.78390004878830       -2.62695377015540
C            4.23765406297833       -3.08840242571203       -1.80367338769368
H            4.48737042675348       -1.81549900806612       -0.13346171176612
H            1.29914409306590       -4.21327192276093       -3.02686593857756
H            3.72971572924654       -4.34060705695771       -3.47368556249564
H            5.29333117224409       -3.08279579628912       -2.03189968236799
C           -4.66350269093695        0.64850553348329       -2.70315197777581
C           -3.94167378137955        2.48909675280085       -1.11575709181487
C           -2.33689474159556        1.40733595151337       -2.65500127561391
C            3.53441856453126       -0.26825336522193        2.02856691077785
C            1.78134687264828       -1.47403263910783        3.31952776623713
C            3.57496459504007       -2.78853144009799        2.30451653891492
H           -4.80988033567173        1.38092740630826       -3.49326584516930
H           -4.36461326687685       -0.29182939681962       -3.16276907963079
H           -5.61475492477503        0.49332927535357       -2.20971511605578
H           -4.22674242995244        3.18896468686018       -1.89811920074797
H           -4.76245763007163        2.39536068276958       -0.41356632872270
H           -3.09078358258181        2.89449966438409       -0.57743218836793
H            2.88612457937185        0.60285579643966        2.00049035009430
H            4.14745653340038       -0.20458731930798        2.92419566133933
H            4.18335850150138       -0.23600871347120        1.15827321576843
H            4.09593030587139       -2.68094883390912        3.25274638552078
H            2.95640254057710       -3.68273852263029        2.35486932918415
H            4.31843885876931       -2.93705312615963        1.53197319139075
H           -2.65132056535765        2.03035153256720       -3.48972537430253
H           -1.54521509989413        1.92746102108031       -2.12770452655857
H           -1.93731032726257        0.47789416931797       -3.05593455013087
H            1.28486645433101       -0.51517880167063        3.40783669123530
H            1.02905951826261       -2.26042048317529        3.30368580986109
H            2.39398933470280       -1.60833621659847        4.20784403267195
