81
 energy: -124.848878169487 gnorm: 0.000923536384 xtb: 6.5.1 (b24c23e)
Si          -0.43476369312459       -0.59222239613747       -0.59113229113675
O           -1.54230083605126       -1.61412952540537       -1.16975845353484
C           -2.00147324889535       -2.88460923334709       -0.77373855113755
C           -3.21508924616425       -2.72737625691620        0.10518788134793
H           -1.21005276111668       -3.40950416138796       -0.22788368444006
C           -4.15201769302810       -1.74430181724573       -0.18527751148592
C           -3.40895002040961       -3.55072264247301        1.20544302376219
C           -5.26853550501715       -1.58570854017478        0.61556097589821
H           -3.98868884646164       -1.09876824523323       -1.03513581553680
C           -4.53020037818271       -3.39552109473781        2.00188758507861
H           -2.67591479786945       -4.30898446139571        1.44026146356965
C           -5.46133235001122       -2.41316274510398        1.70902525267789
H           -5.99154145970271       -0.81726125329363        0.38315539940346
H           -4.67423304806094       -4.03936392139161        2.85722494727918
H           -6.33453564632343       -2.29191783097199        2.33376468987327
C           -2.34598990540684       -3.67319157160428       -2.05045706154750
C           -1.15367644859409       -3.90299898608389       -2.83671171566932
H           -2.80024066836315       -4.62678953133795       -1.76898431211156
H           -3.06190920426505       -3.09294786339391       -2.63801732092329
C           -0.14019872129795       -4.05862277683845       -3.45338781724470
H            0.73155588719934       -4.21213787156313       -4.01538698697590
Cl          -1.23732526943769        0.83176348234842       -1.99845618704577
Cl           0.45138369234655       -2.04730774730346        0.81433091165142
O           -0.58766269230609        0.42188542896168        0.77838137016928
O            1.09672686528940       -0.13564241704849       -1.21031164915192
C            0.99112189001763        2.02874718844060        0.35550547780194
C            2.01910727739400        0.98045223516363        0.56713274628323
C            3.12613502051285       -0.95861075366669       -0.30955159924099
C           -1.31179416348323        2.66660998947638        0.56843392302178
C           -1.00583385991869        3.90005825599299       -0.06907415955147
C            1.35790284344492        3.27950380872113       -0.02435699666251
C            0.35529972857167        4.23895195120495       -0.32797773258439
C            2.88018707415807        1.06163584193911        1.61415466267868
C            3.78145093164495       -0.00889325443187        1.86195398479521
C            3.86273568763236       -1.06107086116519        0.90217407418650
H            2.39820825511192        3.51463431880673       -0.18024332648032
C            0.69368133613901        5.47080610708280       -0.89060869707640
H            2.81676019803670        1.88740125073320        2.30397211053366
C            4.54758299513883       -0.04338271659441        3.02824271234691
C            4.66040574493919       -2.17308126954309        1.25389650703281
C            3.45339714419753       -1.74698134991418       -1.56971196309229
N           -0.31058526428174        1.74761609051560        0.62238577704475
N            2.14335650204488       -0.01886991583605       -0.34408313264179
C           -2.63566777438779        2.38167648356984        1.26565813165673
C           -1.97703863768352        4.82672186449952       -0.50978621284707
C           -0.28377110354416        6.37302184379451       -1.25181188445896
C           -1.62055507530406        6.02575477307500       -1.08185561198185
H           -3.02180081346795        4.58227074512060       -0.45458322503331
H            1.73690352721449        5.69662068605945       -1.05475546202245
H           -0.01805500158800        7.32402826850356       -1.68680019829074
H           -2.39370039511260        6.70391298099614       -1.41152275214190
C            5.36502741835934       -1.11884455215818        3.30326373786315
C            5.38897246963239       -2.19432354384243        2.42051628385294
H            4.66643212283014       -3.05233023367900        0.63525095113225
H            4.47377766128316        0.78150748516458        3.72137648631276
H            5.95634851213382       -1.14078866211939        4.20551869053940
H            5.98213956015270       -3.06547344518213        2.65663113572382
C           -3.00954264990928        3.60380404999849        2.13073420386135
C           -3.73834418775950        2.05801872976306        0.24469088863217
C           -2.57724905615487        1.20474689031070        2.25579717072728
C            2.90826364146325       -3.18100200226671       -1.48558300017014
C            2.88634430625916       -1.11504261959655       -2.85359381351577
C            4.98373194788774       -1.73475705736452       -1.77111403439108
H           -3.99988335434383        3.44985951848762        2.55250232537947
H           -2.30085447467994        3.70204933364943        2.95098655657195
H           -3.01536340230806        4.53783025797188        1.58314019411244
H           -4.61157310913942        1.67554618512953        0.76777251737958
H           -4.03753133277358        2.92435201030747       -0.33488964221633
H           -3.38145668163160        1.30163468342140       -0.44787778627822
H            1.82368984523678       -3.15867777734362       -1.41397884996583
H            3.18776830314734       -3.72757532682803       -2.38340344269481
H            3.28360576384938       -3.71852801506562       -0.62173086385086
H            5.23347323721038       -2.33666261307801       -2.64173276780404
H            5.31872183515481       -0.71543174536412       -1.95481103865806
H            5.53851584970365       -2.11980696468401       -0.92507613075784
H           -3.44607233422797        1.26132873326231        2.90897795209180
H           -2.60625689429693        0.24353541145435        1.75364589728286
H           -1.68601793152451        1.24668755856068        2.87759564224258
H            1.82393418446072       -1.30060794213234       -2.96889903710261
H            3.05389107826196       -0.04055334414026       -2.87661927496289
H            3.39650359960390       -1.55336058610713       -3.70908024737411
