81
 energy: -124.855099698435 gnorm: 0.000724939356 xtb: 6.5.1 (b24c23e)
Si           0.16239653398142       -1.65912307249141        0.41981963588166
O           -1.40126336750291       -1.44537890860394        0.01144701366745
C           -2.22277427735827       -2.02016738058796       -0.98605304733389
C           -2.48430146065559       -0.95203499971475       -2.02600561808763
H           -1.67330671650377       -2.84376503684222       -1.46138065639178
C           -3.73608431906342       -0.41218443556158       -2.28329416186003
C           -1.38839072657192       -0.47240355725985       -2.73700755953962
C           -3.88841443800005        0.57878600676209       -3.23878739281938
H           -4.60791384176039       -0.76170998133757       -1.75306526293760
C           -1.53831056173246        0.52911893253307       -3.67677023375094
H           -0.41480163798607       -0.89764823823822       -2.54681416701473
C           -2.79278552724787        1.05634497914414       -3.93371399990846
H           -4.87120254966768        0.98085629048299       -3.43667770676037
H           -0.67671621862370        0.89051282006983       -4.21953993713079
H           -2.91638858673884        1.83183068426989       -4.67534374130546
C           -3.47695864327248       -2.59786498388693       -0.31992188541024
C           -3.08670867745928       -3.59642776143087        0.65478855060089
H           -4.10917852147209       -3.05507880488375       -1.08492217739510
H           -4.02830719483810       -1.80068281846286        0.18411458752729
C           -2.69943036197713       -4.38466553746299        1.46663964228826
H           -2.37314453117550       -5.08918563089132        2.17136322843533
Cl           0.84772209845065       -2.59671871706778        2.12007876864365
Cl           0.53115285281382       -3.40307690084901       -0.81145750793478
O            1.19486839750580       -0.83357256570451       -0.68027608104444
O            0.05591560922415       -0.21688249992602        1.49726712067431
C            1.46135530656562        1.38368045880776       -0.01791211014198
C           -0.00602305702972        1.53803442094148        0.03374810155434
C           -1.92464003148804        1.05247800374112        1.36758395613425
C            3.37181111660540        0.02266738604168       -0.48271822999625
C            4.17978257113808        0.94416675005111        0.23956895427986
C            2.25007791506014        2.42778224834832        0.36698428543882
C            3.63577391455656        2.21368782676807        0.59110063521270
C           -0.68798853557470        2.43594966326072       -0.72636270947063
C           -2.10164721372387        2.49835321539720       -0.61312895097833
C           -2.72923481704303        1.75470440938643        0.42928641669428
H            1.80154251788961        3.37573872981014        0.61474186029425
C            4.43750028798305        3.18930809043864        1.18636901882547
H           -0.17218505913471        3.03464959115892       -1.45860520842086
C           -2.86606068007039        3.26937486149752       -1.49210206637674
C           -4.14032016043493        1.73174694800966        0.43414532348131
C           -2.36610672522693        0.68068662912097        2.77622377335911
N            2.02023825353265        0.21310920672325       -0.40475216922123
N           -0.63696366075695        0.83397620435085        1.00448446234996
C            3.92831693563712       -1.04707134304779       -1.41047834594182
C            5.49625447047386        0.67468306511982        0.66795859566740
C            5.75239464563251        2.91940052081620        1.50476424695166
C            6.26000953298503        1.64382235725097        1.27925519145693
H            5.89816735583826       -0.31935814752808        0.57547404161372
H            4.00321027143882        4.15162225182036        1.41315351694994
H            6.37014790571050        3.67802689450989        1.95973344152789
H            7.26456650138003        1.40507234335653        1.59516944053767
C           -4.24068763643077        3.28256859917962       -1.40479988231268
C           -4.87146906285965        2.47970587694112       -0.45882763809888
H           -4.66408878057764        1.08091174814065        1.11286088394191
H           -2.35816904133448        3.84312960245066       -2.25259312451442
H           -4.82528214503723        3.88528872540016       -2.08249149037050
H           -5.95026495878992        2.43769638460199       -0.42743452373260
C            5.20826020325954       -0.52100673038377       -2.09090588189175
C            4.21059891585485       -2.34569665791614       -0.64095850624018
C            2.96700110536676       -1.36533190898724       -2.57103059946010
C           -3.15852164812013       -0.63295446374339        2.80102586865385
C           -1.17108147551841        0.52805241454279        3.73316995514142
C           -3.20062533796679        1.83950774105015        3.35841804025118
H            5.55244287996473       -1.26003206175282       -2.81017788962217
H            4.99119414009182        0.40139499441836       -2.62640479829290
H            6.02192608017458       -0.32786928069427       -1.40446605300555
H            4.62606518953328       -3.08699292424595       -1.31869026936457
H            4.91013579586244       -2.18758656712225        0.17524114594886
H            3.28784175959210       -2.74408303473693       -0.22809206811607
H           -2.58128387937040       -1.42457319810135        2.33112179165214
H           -3.35753367214418       -0.91799879994364        3.83109418972967
H           -4.10997552293306       -0.54316145323481        2.28500894182995
H           -3.49216066046627        1.58813515785127        4.37542485379299
H           -2.60175273255549        2.74788050606395        3.38985365389881
H           -4.10093639141945        2.05220113582296        2.79576290166634
H            3.52172940217332       -1.87023853089184       -3.35799071252628
H            2.16325731461035       -2.02586005997458       -2.26774203171481
H            2.54331460669400       -0.45378475290842       -2.98874374051043
H           -0.63191250053459       -0.39812000859389        3.57025008803195
H           -0.47494726444459        1.35806969907473        3.62693117472842
H           -1.54040357699924        0.52527937947377        4.75621183763799
