81
 energy: -124.849958590742 gnorm: 0.000799478952 xtb: 6.5.1 (b24c23e)
Si          -0.11080431248937        0.70188778084828        1.31354524943563
O            0.43334769504190        2.07707158747108        0.64435252722355
C            0.18821783108836        2.72727901946273       -0.57705397986708
C           -1.11866055570257        3.48004160374087       -0.54981580689007
H            0.16770867724759        1.98735551196303       -1.38606234928864
C           -1.66151948011357        3.91793637443439        0.64964781256085
C           -1.77885753148692        3.76132350945188       -1.73985133975886
C           -2.86004886042743        4.61015321847437        0.66062279951955
H           -1.14655442787260        3.70341274361441        1.57337917938527
C           -2.97357740028069        4.45733285562161       -1.72737822577305
H           -1.35407230377577        3.43014937899505       -2.67732289796743
C           -3.51902839856642        4.87947762905794       -0.52618103218243
H           -3.27795687681433        4.94002545625635        1.59978667548925
H           -3.48186976764206        4.66857392816508       -2.65720252629326
H           -4.45495910061681        5.41840880982577       -0.51688953816684
C            1.35911469132723        3.70333996006367       -0.81933682084517
C            2.50776464012322        3.00527915012512       -1.35170204568627
H            1.04630127155371        4.47764330379765       -1.52478457611479
H            1.61232850428202        4.17078460800368        0.13462810026290
C            3.41283379570356        2.38378647157076       -1.82787401098423
H            4.22257971009885        1.86018208510523       -2.23991653730867
Cl          -1.91871288919078        0.08269234968362        2.15194454951504
Cl           0.58817163980370        1.42391927498741        3.19686623754706
O           -0.70850658933998        0.15674013970517       -0.36421443791963
O            0.95139531994740       -0.62763851954374        1.44054613565590
C           -0.36735118333909       -2.10594884970073       -0.39387727447886
C            1.06343219478172       -1.78093468166259       -0.56582778880586
C            3.05961254819762       -0.88910884411719        0.40866460436566
C           -2.59125075132349       -1.25633416719349       -0.54949233029147
C           -3.07734157240105       -2.51101100780867       -0.09088840006461
C           -0.80596738382858       -3.38627620789019       -0.25920230589080
C           -2.18093966067209       -3.61484990517507        0.00886801179918
C            1.72540797689930       -2.16384316595907       -1.69132629585937
C            3.05451493058258       -1.70915193932873       -1.90991696074350
C            3.70347454804089       -1.00463243135996       -0.85348111882485
H           -0.10446898941413       -4.20419388946779       -0.25907868363755
C           -2.65172801749109       -4.87658156607450        0.38254024123964
H            1.21550187467318       -2.73484451925004       -2.44974728010971
C            3.70287707394636       -1.92655333779740       -3.12616731362745
C            4.96358053665868       -0.43941602354767       -1.15098736820880
C            3.80019444035460       -0.65147126667023        1.71586781565796
N           -1.24549754966543       -1.07643941349680       -0.47251628806393
N            1.71302273854444       -1.12198607178157        0.42286532105975
C           -3.41900743070138       -0.20512646042005       -1.27486353163292
C           -4.40351003372747       -2.72089975710550        0.33850653966060
C           -3.97367802935200       -5.05961579438347        0.72299088738428
C           -4.83507553144072       -3.96469261604114        0.73446377148794
H           -5.07117138110294       -1.88338170925175        0.42340512974353
H           -1.95403962879597       -5.69986863664367        0.42332551832384
H           -4.33211479130545       -6.03545135000148        1.01237799834331
H           -5.85387688811832       -4.09152127002503        1.06866558032526
C            4.96988313639530       -1.42645483805478       -3.34975682812882
C            5.57843918503416       -0.65600785527621       -2.36472432747270
H            5.43571681635710        0.22220017009809       -0.44566576631554
H            3.19026811272000       -2.48348297176149       -3.89634383025531
H            5.47047439846135       -1.60500245470905       -4.28877810195918
H            6.54403615395344       -0.20982985435469       -2.55536796246696
C           -2.59341845082067        0.33060133793934       -2.46031897239182
C           -4.69255065230876       -0.81019088168540       -1.89449604370130
C           -3.81352140822911        0.96232511229048       -0.36244613192406
C            4.04481787268030        0.84987707451866        1.93094655162912
C            3.04203105227648       -1.19378500057288        2.94082961552820
C            5.12373918127299       -1.44515688957867        1.70408775629954
H           -3.17833972874535        1.07408074201680       -2.99589292319814
H           -1.67811796343097        0.80788214938420       -2.13207012921458
H           -2.34667139915507       -0.47907495553634       -3.14597270090970
H           -5.00496219426784       -0.18535159109590       -2.72810787226126
H           -4.51474063621331       -1.81402750337758       -2.27213012809438
H           -5.51905268634310       -0.84006623273436       -1.19400459453279
H            3.09341269230988        1.36711490125033        2.02001920916756
H            4.59944961650159        0.99920449926390        2.85370112655913
H            4.59851451356594        1.29870184237404        1.11152100126120
H            5.65201293432096       -1.25874430981949        2.63579991063591
H            4.90962289602835       -2.51060459326742        1.64122285430153
H            5.78855857712000       -1.19130343644473        0.88927660897078
H           -4.46913226957972        1.64268469344234       -0.90122605200970
H           -4.32539239524549        0.60085500798446        0.52496027831940
H           -2.93611143465268        1.51535532771915       -0.04536913721259
H            2.24021061883300       -0.53638412965249        3.25486895056205
H            2.63199049832442       -2.18257677578364        2.74425029360644
H            3.73860164093823       -1.27681993330374        3.77171672450831
