81
 energy: -124.850565897672 gnorm: 0.000711551934 xtb: 6.5.1 (b24c23e)
Si          -0.18996485799799       -0.93461176361974       -0.18753060328006
O           -0.93471213913833       -2.34108119116665       -0.46319585082935
C           -2.11883104125565       -2.67724787644783       -1.14269895046947
C           -3.32116207952482       -2.37068857424574       -0.28765466058364
H           -2.17805363239948       -2.11169152303781       -2.07966030041076
C           -3.23928103686182       -2.48759614315394        1.09341128187409
C           -4.52021136263817       -1.98136457164855       -0.86929683634664
C           -4.34129924827305       -2.21338539543846        1.88395960819774
H           -2.30253756183816       -2.78275054426271        1.54211967131107
C           -5.62337650800718       -1.71369173965851       -0.07808634314202
H           -4.58319419184027       -1.87904676763547       -1.94301234136473
C           -5.53586524293913       -1.82839294440413        1.29944221817754
H           -4.26615978618360       -2.30222793375182        2.95802332434794
H           -6.55194213060463       -1.40837555579177       -0.53777271930001
H           -6.39728348603025       -1.61603715403377        1.91613525341722
C           -2.05263297052346       -4.18247502455394       -1.45932003428469
C           -0.99158298253744       -4.45556500061156       -2.40394579437582
H           -3.01257132743983       -4.50254124521417       -1.87278572255632
H           -1.86279691774437       -4.72457000570973       -0.52976050942692
C           -0.10239575286014       -4.63198987041689       -3.18466703566507
H            0.67303199902080       -4.80849323657695       -3.86812267102304
Cl          -1.39111360348547        0.19529162506458       -1.66217462311788
Cl           0.97643051778603       -2.00785158772640        1.27923382833371
O           -0.43374161066895        0.24928415021534        1.02776282243401
O            1.16323973410815       -0.33041258522793       -1.04569569606276
C            0.87676904625626        1.97844535342370        0.28510543481504
C            2.04906944269241        1.10151409246568        0.52013485979226
C            3.35300406439266       -0.75214341867438       -0.26328462404727
C           -1.46936518188263        2.34621415894859        0.62017378295235
C           -1.37773696692039        3.51585186114987       -0.18408360687743
C            1.04458967661733        3.20649937755542       -0.26943004997222
C           -0.09641303033388        3.98673330516797       -0.59750966811903
C            2.96555278844052        1.40433332530467        1.47549118409804
C            4.00596410565482        0.47828420748963        1.75807995601180
C            4.15678216567622       -0.65242625169190        0.90131880837360
H            2.03096174987215        3.54734580390301       -0.53885928677893
C            0.03244901452476        5.17055354598634       -1.32567626493346
H            2.84458918754760        2.28674602945452        2.08247953265906
C            4.83744464836234        0.64447342012715        2.86698470947145
C            5.07285143262252       -1.64365669141424        1.31264454861920
C            3.66503295500061       -1.56832542637388       -1.50807388933193
N           -0.35372931041982        1.56932430020318        0.68951792206591
N            2.24619132287522        0.03968688679196       -0.29997704630303
C           -2.68278653698030        2.00751176236688        1.47586278823487
C           -2.49385698335171        4.25046933607930       -0.64369291699902
C           -1.08069674383759        5.89201745575791       -1.70092589617233
C           -2.34318749110421        5.40419995424314       -1.37774228540172
H           -3.48977445982213        3.88560826887597       -0.47060865225409
H            1.02167571524288        5.50230745195061       -1.60426253244169
H           -0.97653565594967        6.80795080786488       -2.26163849388974
H           -3.22219146350490        5.93395128906710       -1.71414602862987
C            5.77763720704354       -0.30983013389063        3.19088224954781
C            5.85991753771893       -1.47086191053681        2.42625183565273
H            5.11328278197138       -2.57971985490854        0.78880340926862
H            4.71385512102963        1.52390212531953        3.48156140909765
H            6.41790683766378       -0.17654813692752        4.04925268843668
H            6.54483711479237       -2.25334193619174        2.71717353568789
C           -3.13436195874714        3.28605909013232        2.21303900337604
C           -3.82203893619512        1.42159378405653        0.62640764396405
C           -2.38465377554275        0.99358345355171        2.59344992753580
C            2.86612092158605       -2.88055993001907       -1.52261118513110
C            3.31893168971972       -0.73401101206591       -2.75832028896833
C            5.16697522547148       -1.89123280263111       -1.62919651631884
H           -4.05519049487748        3.07712511713157        2.75222721350027
H           -2.37461926980820        3.58000693122822        2.93491286690798
H           -3.31079039046901        4.12738128534389        1.55456809214317
H           -4.60726058189339        1.04883643769119        1.27985175573406
H           -4.25680802125540        2.14947885813509       -0.04979616207122
H           -3.45047662199363        0.59343873050541        0.02967491951033
H            1.80437316014563       -2.69397594702431       -1.65200175582565
H            3.20868295340599       -3.50533909633710       -2.34424603365372
H            2.99933025982547       -3.41739899163080       -0.58709911960768
H            5.41546442019926       -2.02343343588888       -2.67985497962931
H            5.78147681195395       -1.08491386994185       -1.23708722203483
H            5.43073588837056       -2.81429058976312       -1.12478856926215
H           -1.45860588453029        1.22903930631425        3.11289746835553
H           -3.19733617531942        1.03090416954743        3.31637335128169
H           -2.32461171488722       -0.02124048681084        2.21597123928095
H            2.26363522458116       -0.49504451351507       -2.81956697391521
H            3.89163071332283        0.19233169191591       -2.76170887310119
H            3.57848168487570       -1.30253807978147       -3.64809653064132
