81
 energy: -124.770095120804 gnorm: 0.000813244148 xtb: 6.5.1 (b24c23e)
Si          -0.20867643467342       -0.95232662820258       -0.93639780724438
O           -1.84240236409939       -1.68108856014787       -0.68647013731630
C           -2.23330820190537       -2.43831801944896        0.25576063960109
C           -3.57608377132073       -2.86751359084282        0.38535223040356
H           -1.50188862527193       -2.77135192116094        0.99296866645179
C           -4.55409584474845       -2.49962769556497       -0.56243062159825
C           -3.96089328672983       -3.67457247589583        1.47511431292464
C           -5.85521357920841       -2.92001132995698       -0.41636383747733
H           -4.25234292101081       -1.89223951736511       -1.40127538206639
C           -5.26660217866516       -4.08666673426032        1.60708455377077
H           -3.21589400677594       -3.96181382804326        2.20245141471167
C           -6.22035845226865       -3.71256976044771        0.66636467504936
H           -6.59819246327208       -2.63610066893988       -1.14705848405304
H           -5.55495897864941       -4.70552356593879        2.44441105172655
H           -7.24290929359497       -4.04125411969550        0.77571211362251
C            1.42597903561650       -1.80928893533981        2.64551098722901
C            1.09029375472707       -2.03772897485142        1.41223150115438
H            2.40723513096853       -1.45840700924035        2.92267171022108
H            0.73711428571945       -1.99154013598206        3.45529572265955
C            0.71743379761552       -2.23070049573378        0.19090847908458
H            0.87757974077873       -3.20725189530553       -0.24737741805294
Cl          -1.28306916908242        0.58294045336235       -2.07336307189803
Cl           0.06145577100794       -2.17103330188663       -2.69883895290857
O           -0.41765662906652        0.07465407627344        0.64008251785294
O            1.28513435833455        0.07516172426442       -1.34637759655750
C            0.75654620312622        1.99423028210116        0.35768548526425
C            1.96805687759698        1.16435559066902        0.51927285600398
C            3.36598513530067       -0.49704935606080       -0.45209728382906
C           -1.60579892593517        2.08511108719701        0.59260423180809
C           -1.58738524980304        3.39937574378317        0.04446250566876
C            0.84282431952976        3.32472451093004        0.09128132175203
C           -0.34039935350151        4.05341645112861       -0.16336771451993
C            2.82486169927187        1.36594963771217        1.55842880418024
C            3.89077243904826        0.45763666700089        1.75477586148214
C            4.11697303785107       -0.53637711186699        0.76048796214514
H            1.80741570957483        3.79558472392259       -0.01176287074644
C           -0.29482929446434        5.37381549069373       -0.63340851543543
H            2.63481846128043        2.14819176332577        2.27544354538510
C            4.67836428723729        0.49885034208855        2.91375314918647
C            5.05513684913433       -1.54392874306973        1.07090459166010
C            3.86778580489376       -1.11299192717656       -1.75119577378150
N           -0.44954563325025        1.39502713347603        0.55642711402477
N            2.23475736564199        0.23702656005810       -0.43654365389379
C           -2.81833791015561        1.49901392899400        1.30547866671576
C           -2.74487043632969        4.09323811611450       -0.37181466820330
C           -1.44938773882742        6.03796384921801       -0.96244556644685
C           -2.67310960513897        5.37263457727955       -0.86215075579796
H           -3.69724629098213        3.59471901170459       -0.37454233332565
H            0.66858434075506        5.84563580958475       -0.75696742612389
H           -1.41374363813290        7.05220362190828       -1.32935768752232
H           -3.57536072417053        5.86878315067090       -1.18708417167053
C            5.63477973732374       -0.46124761970487        3.14455398065059
C            5.78981166989436       -1.50422218749609        2.23230149182046
H            5.16330513338462       -2.39599550904161        0.42344416636420
H            4.49759028007692        1.28263756706465        3.63434027725008
H            6.23629599716231       -0.43043247412242        4.03999532993333
H            6.49055438083003       -2.29772601904382        2.44441983059940
C           -2.44084308414371        0.37155492073776        2.28218886092429
C           -3.44841572154190        2.59050408813495        2.19605898067975
C           -3.84149598701702        0.93595981424196        0.30842328841250
C            3.55147015877595       -2.61428718734238       -1.82673118428865
C            3.27033021317788       -0.44464690334747       -3.00006182802381
C            5.38697600392723       -0.85421077908851       -1.85508800930614
H           -3.28770464785838        0.18305780438117        2.93948646702189
H           -2.20768211633742       -0.55295933514395        1.76659063042043
H           -1.58710844813592        0.64937938395776        2.89762420726074
H           -4.32917155502927        2.17924700854639        2.68347154256934
H           -2.74165482633733        2.89199455907740        2.96736396128543
H           -3.74892829948496        3.47781600449132        1.65384292731800
H            2.49457904453706       -2.74917899687357       -2.04001668473495
H            4.12031842828926       -3.06291295694020       -2.63719951621565
H            3.78632621904710       -3.13472953214319       -0.90314075353961
H            5.73820831614020       -1.21465840871331       -2.81859197243135
H            5.58569206167243        0.21478698448836       -1.80128902235942
H            5.97080239249984       -1.34325044205047       -1.08579798480503
H           -4.59230540709498        0.35737993909362        0.84248377287618
H           -4.34387153912412        1.71808205143277       -0.25098873972554
H           -3.33939146465384        0.28895816054284       -0.40333771030663
H            2.23404754972160       -0.72028659377258       -3.15601481690686
H            3.33955227058445        0.63970950434968       -2.93849895512547
H            3.83296983573878       -0.77355884675275       -3.87052947888778
