81
 energy: -124.851426072566 gnorm: 0.000531724241 xtb: 6.5.1 (b24c23e)
Si           0.04343000655996       -1.54626857712777        0.65301223644406
O           -1.52173818957588       -1.34528153896425        0.26782860616410
C           -2.52488992478011       -1.71201840636281       -0.65420443243883
C           -2.26444492913928       -1.08323586852320       -2.00260289974866
H           -3.43800907442280       -1.26465621285058       -0.23187895477889
C           -1.12009736875101       -1.38754339893959       -2.72895802951586
C           -3.16533898745472       -0.15989788940135       -2.51788596035867
C           -0.87168224025465       -0.75777606222717       -3.93547700342114
H           -0.41794196301855       -2.11004825847406       -2.34732878258750
C           -2.92181561173882        0.46013652237798       -3.73045403957273
H           -4.06425729661176        0.07740766387315       -1.96669078476907
C           -1.76853951993374        0.16964599214921       -4.43819648207914
H            0.02508788962679       -0.99918703127109       -4.48706280606684
H           -3.63291346875375        1.17504265949630       -4.11791958339046
H           -1.57269104870647        0.65991834360553       -5.38088223301167
C           -2.74741455804610       -3.23020308290098       -0.75142164787387
C           -3.03411686517661       -3.76837273694151        0.56070462837535
H           -3.58915247497847       -3.40928373743297       -1.42583279395774
H           -1.85774875440889       -3.71657667488571       -1.15275301909522
C           -3.24982385149015       -4.13978942695250        1.67740763050148
H           -3.43445736086681       -4.50664947445890        2.64228587845953
Cl           0.68312251810249       -2.30706241662171        2.46196122587620
Cl           0.45144700573077       -3.41527914457693       -0.35197510561541
O            1.08960568961352       -0.84665689390934       -0.51778181778133
O           -0.03312967435356        0.01471334378213        1.58451653169273
C            1.39080296201147        1.42154095986872       -0.06873217389354
C           -0.07391319751833        1.60461035587977       -0.04635055682542
C           -2.01674389009885        1.25592927692432        1.29677230062498
C            3.28013283869988       -0.00619714435573       -0.39462175332342
C            4.09859085723164        0.96160606254813        0.25038717877149
C            2.19419419393710        2.48173095482175        0.23098501359472
C            3.57405747777850        2.26528924740277        0.48760409330226
C           -0.73473140286173        2.42778868279746       -0.90252761658542
C           -2.14745027746287        2.52287580097907       -0.80990644420842
C           -2.79737426309275        1.88792289474451        0.28996909830746
H            1.76034929565489        3.45540569226539        0.38943156626568
C            4.38711597174897        3.27485180651703        1.00540714620967
H           -0.20323829260515        2.93840224062596       -1.68839817237575
C           -2.88816761388674        3.21499261996300       -1.77154693708925
C           -4.21008222239195        1.89023085725680        0.27635025606266
C           -2.51003354647616        0.97144479342403        2.70904629098389
N            1.92985834769070        0.21094571566962       -0.34530038234249
N           -0.72118006179950        1.00762262260700        0.98404227387064
C            3.82854150834404       -1.15793365566816       -1.22368042870056
C            5.40916134082294        0.70986527906174        0.70794490682429
C            5.69513669615114        3.01241090628691        1.35710105099747
C            6.18412238821014        1.71498935699318        1.24199680626537
H            5.79765758183447       -0.29377384604223        0.70008552129666
H            3.96727746707161        4.25979334834038        1.14599561577469
H            6.32147074571385        3.79685780376305        1.75271597104753
H            7.18301483286556        1.48800570640310        1.58368724164127
C           -4.26373162607332        3.25622206034260       -1.70729796744455
C           -4.91807607730535        2.56025748661564       -0.69470795953766
H           -4.75729610637538        1.31497741661938        1.00267532246854
H           -2.36066567699396        3.70338641922482       -2.57706577059379
H           -4.83116954401361        3.79651974446758       -2.44924553402458
H           -5.99781945078740        2.53670047889507       -0.67319733590068
C            5.10803996364553       -0.69983483590045       -1.95248241297045
C            4.11007070751380       -2.38560738156933       -0.34492539760480
C            2.86080356504283       -1.57432547108469       -2.34655669015051
C           -3.33380607047483       -0.32326025590680        2.77171863572627
C           -1.35752308941703        0.84167842736865        3.71985350619679
C           -3.33221621720242        2.18007773232034        3.20259897707168
H            5.46218374423975       -1.51160172464387       -2.58321500943891
H            4.88580862104423        0.15520554185194       -2.58823546976424
H            5.91584590417511       -0.42296811143155       -1.28789763419359
H            4.50872974184437       -3.18866415248742       -0.95961816705988
H            4.82298588208475       -2.16436897622954        0.44433166017054
H            3.19019897112375       -2.73630103211235        0.11455873162918
H           -2.74386693129045       -1.15561409174793        2.39760796796500
H           -3.60626062094329       -0.52861294392286        3.80418225707486
H           -4.24516761289826       -0.26213457123040        2.18428161457451
H           -3.68298013566889        1.97957832794522        4.21210923577476
H           -2.70155973000502        3.06681282101111        3.23090391770956
H           -4.19451062318669        2.40448042158603        2.58783181121442
H            3.41261393300268       -2.13793740923008       -3.09505658530967
H            2.06503320972501       -2.21148701299012       -1.98010405561441
H            2.42434404331662       -0.70289037530196       -2.83111532963570
H           -0.83943087166896       -0.10621307306992        3.63275978438392
H           -0.63354203748000        1.64475161483031        3.59583258280597
H           -1.76675954971636        0.90792189423936        4.72560808652509
