81
 energy: -124.852745642357 gnorm: 0.000861643609 xtb: 6.5.1 (b24c23e)
Si          -0.35899126189700       -1.17664415811090        0.18959483270230
O           -1.72529273200940       -0.48308840738058       -0.37414934651820
C           -2.63724201631146       -0.93776488750430       -1.34411577822329
C           -3.56431243306237       -2.00901617906246       -0.82080854869367
H           -2.07726197493313       -1.34904996423419       -2.19324003325686
C           -3.69898417882766       -2.27266961794685        0.53283630206234
C           -4.30780654495651       -2.75322900190751       -1.73015353102823
C           -4.56169427402267       -3.26150982536398        0.97347996595162
H           -3.10923418087713       -1.72449466124255        1.25075162549048
C           -5.17470560785593       -3.73506847727535       -1.29033296575612
H           -4.19147425053433       -2.57057787942300       -2.78915884021209
C           -5.30563066457535       -3.99115481325930        0.06480640035238
H           -4.64489292079752       -3.46236699897342        2.03120144501806
H           -5.74308958406561       -4.30942377524877       -2.00719670824445
H           -5.97750269120113       -4.76374833136513        0.40839707326978
C           -3.44208456822081        0.28188623905917       -1.83535796475394
C           -2.59334957399876        1.19110529555243       -2.57324321504507
H           -4.25267545120259       -0.06582233344763       -2.48008407236188
H           -3.87233072967354        0.79619943406325       -0.97396623951941
C           -1.84476018049599        1.89489036213879       -3.18595893443876
H           -1.22117470221233        2.53831143814504       -3.73024907206795
Cl          -0.12630666167287       -2.23287477236180        1.94769276702781
Cl          -0.52264886544095       -2.99172972848353       -0.99956598973064
O            1.00345322912792       -0.76548042311128       -0.76543475867341
O           -0.11765767687500        0.25036985818414        1.27058404629420
C            2.09111258639774        1.05981686630445        0.16542131514452
C            0.86091297149114        1.85327866664025       -0.02275921497417
C           -1.30991019334450        2.25959369066248        0.87914726296617
C            3.26401905701623       -1.00237887346376       -0.13254122447725
C            4.23391775960618       -0.56054319326784        0.81013264488031
C            3.15809968043284        1.62632921784893        0.79637723635833
C            4.23765046519674        0.80536377379082        1.21701207898918
C            0.82593737788683        2.98156988479994       -0.78083655050689
C           -0.39960040190040        3.68435078083904       -0.91098581489206
C           -1.49517226986313        3.28701365411997       -0.08987240728325
H            3.12652487096450        2.66618381894808        1.07749173381880
C            5.24831200953810        1.29886355526718        2.04379971197041
H            1.69858839554207        3.29440688822574       -1.33028089396327
C           -0.53363968847452        4.73975700291755       -1.81705989769381
C           -2.72669912406597        3.93526217844676       -0.32358190686194
C           -2.17188423477825        2.11595663379192        2.12824862310554
N            2.14853641756849       -0.22294312977386       -0.26366587202345
N           -0.20728962896073        1.48507598274473        0.72664269297997
C            3.48064610305737       -2.18215245610606       -1.06759472463825
C            5.19800153109776       -1.40255289086601        1.40383368870775
C            6.22744376494968        0.45983187233151        2.53399972090346
C            6.16925162757587       -0.89868112611637        2.23956480605884
H            5.14700892065336       -2.46680266014829        1.25422830558066
H            5.23784537417619        2.34545796232904        2.30966017477316
H            7.00976456778955        0.84624184848437        3.16870820846304
H            6.89078911015889       -1.57176076694530        2.67817851605912
C           -1.74151726017419        5.38308970688846       -1.97681467222576
C           -2.84226666921446        4.95168442947909       -1.24351136768254
H           -3.61592851290679        3.60587818166771        0.18372238098352
H            0.32571426361181        5.03066637413946       -2.40362761214307
H           -1.84061038825454        6.19567048800328       -2.67994784277249
H           -3.80404042583594        5.41683178944634       -1.40031411622433
C            4.96140725503831       -2.21670901131761       -1.49953331296340
C            3.07501755635671       -3.50385539211381       -0.39885737534635
C            2.68824052742190       -2.04023836906892       -2.37897842277840
C           -3.50063504276138        1.40612707768367        1.83163095112411
C           -1.47250286212964        1.33251154112872        3.25169279933908
C           -2.41671114725564        3.52182073321169        2.71468050612120
H            5.09774877145401       -3.01851738618573       -2.22101439719673
H            5.22992763136224       -1.27713931119089       -1.97903472948173
H            5.65111345603868       -2.38639061568563       -0.68287194324851
H            3.29169234572314       -4.33068234024261       -1.07039527738345
H            3.60214568239682       -3.66699547138990        0.53646269804663
H            2.00849357697216       -3.50667406555882       -0.19370059650311
H           -3.30302096444568        0.47148509020196        1.31636087115018
H           -4.01180718422950        1.18515955253274        2.76592336774618
H           -4.16555883519958        2.00850259528908        1.21952096650908
H           -3.05688813360708        3.43408965438865        3.58930368252155
H           -1.47092770851608        3.96045369061419        3.02703275795596
H           -2.88793721565253        4.20478354580668        2.01841950430969
H            3.09445147323994       -2.73543914318951       -3.10972127659330
H            1.63917849317903       -2.27871490931525       -2.25097641697961
H            2.77681071571385       -1.03348115515284       -2.78313320932409
H           -1.44598198740400        0.26651939807642        3.05684778197112
H           -0.45194550305629        1.67868560731601        3.39986483782905
H           -2.02054046099081        1.49112414131138        4.17829479013768
