81
 energy: -124.851775873064 gnorm: 0.000463183034 xtb: 6.5.1 (b24c23e)
Si           0.15946873717224       -1.39182320649123        0.83298123914823
O           -1.45122137436333       -1.34833426300220        0.59898101440650
C           -2.36635975031991       -2.35167771778726        0.21140623330727
C           -3.09337711880191       -1.90234257138009       -1.02956539292347
H           -1.81699391258403       -3.27369654005843       -0.00360224510115
C           -3.75478489073939       -0.68216583348446       -1.05014529225350
C           -3.09882905858318       -2.69474995362437       -2.16926279320384
C           -4.41169033695935       -0.25791049016199       -2.19051757377064
H           -3.74312736403731       -0.05826008205979       -0.17027749372636
C           -3.76351573345886       -2.27483494720490       -3.30826547439078
H           -2.57715186081172       -3.64060444522628       -2.16239208213213
C           -4.42019622843992       -1.05587878240901       -3.32166163479736
H           -4.91715101203687        0.69679913752471       -2.19347882948494
H           -3.76464161769665       -2.89902604714254       -4.18985196999685
H           -4.93493609176210       -0.72686059380810       -4.21256476823207
C           -3.34459372711394       -2.63253142399408        1.36680591453270
C           -2.60822639938680       -3.03595355212722        2.54597097937157
H           -4.02686462865829       -3.42863886915789        1.05809128978012
H           -3.92632278327348       -1.73430087736640        1.58546988284662
C           -1.93258351084656       -3.33719688074600        3.48622057883325
H           -1.35156015425896       -3.61074656318138        4.31516136858259
Cl           1.18070499011255       -1.65360413035763        2.61019565492893
Cl           0.46852804607737       -3.46835883818266        0.27599346048783
O            0.95614375522987       -0.97711714784242       -0.63193184540620
O            0.12563345553503        0.32473093195406        1.39235598726034
C            1.46827121289123        1.28359838151642       -0.64616907363164
C            0.03177584724048        1.59606437912691       -0.50779974709476
C           -1.71931379571502        1.78020022623548        1.10230015085815
C            3.20570598729849       -0.33406645993504       -0.92465401786436
C            4.15937234376865        0.65899617160112       -0.56665104607299
C            2.36643741184199        2.30862376684414       -0.62277232593773
C            3.75067214561557        2.02233241397460       -0.49242053967507
C           -0.64662711990026        2.34062280210433       -1.42064445471599
C           -2.01466040161962        2.63950214405775       -1.18563002008855
C           -2.55895424314298        2.33591792325997        0.09791157783187
H            2.01820937112815        3.32787371218632       -0.58916449628480
C            4.68350229977671        3.03367077227039       -0.25496317898756
H           -0.16949877254821        2.64823770172233       -2.33633738264820
C           -2.80635177409943        3.23154534554103       -2.17232244114772
C           -3.94251181947660        2.56123337876490        0.26873194607785
C           -1.96963814141221        1.85316397358091        2.60399960108477
N            1.89072353161941        0.00307329083798       -0.76211108105020
N           -0.54389125119049        1.25251204044613        0.67099561025989
C            3.57531026829743       -1.65000845093126       -1.59193665554067
C            5.50548051020498        0.38129461205937       -0.24614965205799
C            6.00908239771324        2.72767784963703       -0.02909141389107
C            6.40239453603533        1.39340867989757        0.01066284896959
H            5.83361994441789       -0.63786122061713       -0.14018063427749
H            4.34386701361668        4.05845231753754       -0.23128351564203
H            6.72784646692850        3.51222937241722        0.14975592907262
H            7.42455342377474        1.14507642115914        0.25466918680595
C           -4.14021821356111        3.49271267202331       -1.94408361618274
C           -4.70648552445223        3.12550382969261       -0.72630608651968
H           -4.43017109729354        2.23763841271150        1.16999413365149
H           -2.35600898736838        3.46701269902504       -3.12500776651472
H           -4.74660402900894        3.95113965527798       -2.71008172796722
H           -5.76323128800857        3.27571768193852       -0.56081747688151
C            4.74123545617429       -1.40540909310772       -2.57244756088106
C            3.94865949059838       -2.71668526043124       -0.55207963988686
C            2.43500102613621       -2.20421003837400       -2.46401426692947
C           -2.61513383379958        0.55811413762012        3.11288889592351
C           -0.63800823725241        2.07899902496310        3.34605707162591
C           -2.85880846260799        3.05906402475643        2.97308799098421
H            4.97086929949928       -2.33709752478030       -3.08351961751812
H            4.44836444088461       -0.66981761682321       -3.31940362349423
H            5.64834980776455       -1.05689535204766       -2.09588826068114
H            4.23404643755873       -3.63359468884399       -1.06129690815134
H            4.77133392226376       -2.40021518750989        0.08206227319508
H            3.09439152768203       -2.93526688138566        0.08187554906742
H           -1.98314686621716       -0.29672155005719        2.89243563774978
H           -2.75664792196664        0.61424858116662        4.18937959531851
H           -3.58526419570249        0.40377390093907        2.64512768205092
H           -2.61954943448216        3.37953152309788        3.98409955988753
H           -2.68627328119517        3.89951454290809        2.30538977635154
H           -3.91604826660105        2.81609812399504        2.96539546799420
H            2.84252259632754       -2.95812400522976       -3.13327875721351
H            1.66045539210571       -2.67780841571110       -1.87274283795108
H            1.98743304658065       -1.41910017019416       -3.07068806432050
H            0.03365381513685        1.23352116787082        3.25595752626410
H           -0.13934327377137        2.96940378213144        2.96576604921364
H           -0.84165316844052        2.22375516637238        4.40404461930164
