81
 energy: -124.851834658258 gnorm: 0.000872140618 xtb: 6.5.1 (b24c23e)
Si          -0.31215004063908        0.80849530722744        1.50179526715934
O            0.93834927584069        1.72198456546059        1.02302924851428
C            1.27441799860506        2.37967147789948       -0.17705966895574
C            2.65597900810105        1.96267397993391       -0.61144941261974
H            0.54798543977936        2.12369577481302       -0.95154101763280
C            3.67769810973666        1.86957345867996        0.32412486422737
C            2.93024040092940        1.70535244806402       -1.94752746734179
C            4.96045873994977        1.54189343328406       -0.07587485735418
H            3.45411226331267        2.04970238360142        1.36451748051564
C            4.21513899893943        1.38448773820088       -2.34728365519938
H            2.13512865988960        1.76416102692047       -2.67766972512207
C            5.23368322963203        1.30922871307616       -1.41312467291769
H            5.75183774926041        1.47823876921364        0.65702475708608
H            4.42162019581548        1.19288775265583       -3.38994941069257
H            6.23829415759842        1.06802598098674       -1.72755185398498
C            1.24170357476456        3.90090092201718        0.07424330272472
C           -0.07756173711821        4.32246744240318        0.49164210329254
H            1.53451993220657        4.42065801556978       -0.84177244394012
H            1.95781869233075        4.13850122219088        0.86491538943851
C           -1.17763577927646        4.62037145319344        0.85750500883426
H           -2.13544627816937        4.89889947092694        1.18211353960170
Cl           0.44412064180200        0.94520004325043        3.49262670645253
Cl          -2.26391495852083        1.07624885495048        2.16208281279129
O           -0.95410381123684        0.80100256949662       -0.25874618498631
O           -0.04723776085029       -0.88594745039773        1.46804526487347
C           -1.50645027018274       -1.35782538167364       -0.69666685153104
C           -0.04289511341060       -1.56703072298916       -0.73281513844612
C            1.96863138058967       -1.75135081548462        0.55417451003849
C           -3.21882059581618        0.30175432921403       -0.76749812530618
C           -4.18684434574454       -0.73485465628549       -0.62890772716244
C           -2.39364738349470       -2.37779752167136       -0.82070305879895
C           -3.77854626864781       -2.09910096998726       -0.68539112120130
C            0.60085638921168       -1.87489840479561       -1.88791191202915
C            2.02311252891167       -1.91694152166484       -1.90148549689039
C            2.71136545003106       -1.81102109771643       -0.65587938307815
H           -2.04627547357026       -3.39017985029154       -0.94520324497978
C           -4.71888353461869       -3.13038492032311       -0.60954344302172
H            0.04319027596196       -2.01314742295948       -2.79984772132527
C            2.72638664415632       -2.05595804278071       -3.09733120069843
C            4.12159715095236       -1.75903561395940       -0.71867170224581
C            2.52785975647569       -2.14807692246055        1.91209665353489
N           -1.92316639606275       -0.06897848246851       -0.59907474048133
N            0.63970486413369       -1.45426336005623        0.43161005058775
C           -3.56029107678934        1.69041876968812       -1.29379714499551
C           -5.55904288708526       -0.49419207600374       -0.40193507238506
C           -6.05587615727506       -2.85149279454668       -0.43485068267254
C           -6.46307738198287       -1.52604149605147       -0.30643830572226
H           -5.90861962641775        0.50969192878262       -0.24280685406832
H           -4.37348889999369       -4.15154226210737       -0.67363191148296
H           -6.77819741074599       -3.65077874882536       -0.37452971688132
H           -7.50335171563189       -1.30304796516480       -0.12163357202849
C            4.10611676613787       -2.06725062438843       -3.10779342769221
C            4.79331290657795       -1.89344088683736       -1.91185992813257
H            4.69444159720259       -1.56125344284940        0.16930830652716
H            2.17028176843688       -2.14986154541242       -4.01856916988271
H            4.64499525665380       -2.18775314608750       -4.03479423758130
H            5.87245110756579       -1.85588879475543       -1.91615477509906
C           -4.51791887003013        1.51781934821668       -2.49217443897520
C           -4.18615196218625        2.60634730115256       -0.23243391087136
C           -2.33014061991453        2.42038438013260       -1.85451223141363
C            3.34990744415429       -1.01030550460756        2.53483385201071
C            1.43277904776113       -2.53648766331031        2.91972290400931
C            3.37873764863349       -3.42430824065839        1.73895182951110
H           -4.77878863840427        2.49934100109561       -2.88078544617676
H           -4.02680652826768        0.95626982278605       -3.28503953428186
H           -5.43498606647920        1.00185430513510       -2.23411415468639
H           -4.27317245636779        3.61145062529031       -0.63902057818931
H           -5.17429278540039        2.27774567149259        0.07088427547827
H           -3.55402666160520        2.63168062359440        0.64933273201278
H            2.70217502524369       -0.16176814565700        2.73648080029124
H            3.77195740907258       -1.34513445856981        3.47914553734837
H            4.15699034868874       -0.68151896477706        1.88789999974605
H            3.78425790539538       -3.71160491387088        2.70595746116509
H            2.75192276133478       -4.23748587660739        1.37724938288724
H            4.20524606219227       -3.30821105349730        1.04946025168632
H           -2.66624077615321        3.26810255965292       -2.44836493997246
H           -1.69868529378279        2.80229869596358       -1.05914628819344
H           -1.74247910336223        1.77064229978960       -2.50081266397753
H            0.92744176986013       -1.66869873214282        3.32802848706825
H            0.69436907259184       -3.19587007448515        2.46766833355649
H            1.89626625881843       -3.06653389682274        3.74861711033347
