61
 energy: -107.989230352695 gnorm: 0.000819418026 xtb: 6.5.1 (b24c23e)
Si           0.79674166923417       -0.57563113529879        1.30328406729958
O            1.38049466472101       -1.75477860864778        0.37117793141655
C            1.92446533822708       -1.76864654310547       -0.92767127154226
C            3.41510434626222       -1.54837874764511       -0.88089879595594
H            1.46122362547206       -0.97694038282279       -1.52366614445014
C            4.14590065836104       -1.88309867232957        0.24986585746861
C            4.06974842062122       -1.01057372160681       -1.98196147732892
C            5.51380218800795       -1.67480188604090        0.28220084909021
H            3.63379633881726       -2.29226006931974        1.10713399041816
C            5.43828821053616       -0.81065453546768       -1.95104137535392
H            3.50098177671645       -0.74205428105266       -2.86153338011256
C            6.16302619096907       -1.14037215221665       -0.81725928362047
H            6.07325364567109       -1.93118369283912        1.16938063740044
H            5.94045932114565       -0.39164192726083       -2.81179850924435
H            7.23070060646679       -0.97801863305787       -0.79147638886083
C            1.58546540310034       -3.13663346937407       -1.55020746135446
C            0.17362296481604       -3.21685994235777       -1.85588627683592
H            2.17020014527285       -3.27356266659423       -2.46340693971139
H            1.85166356532719       -3.91599839145284       -0.83264749497280
C           -0.99722323538204       -3.22682754627143       -2.10380395492619
H           -2.02230388621768       -3.27192113550481       -2.32268416185305
Cl           1.82462127767674        1.04283469541645        2.06536354136538
Cl           0.98333794622775       -1.76401403522478        3.01814516085832
O            0.46095687131123        0.45143333806694       -0.32648110815220
O           -0.87758652241306       -0.41117616916244        1.60753049437356
C           -1.37005422407768        1.81811800333033        0.01866883844126
C           -2.19204811583550        0.60224263305166       -0.06091221681676
C           -2.47247623228666       -1.69423125187526        0.50858069110301
C            0.79013501863393        2.73604113013631       -0.31657997720070
C            0.28954246237304        4.04892649275112       -0.12932026921089
C           -1.91239865328475        3.06448305438642        0.18690604085819
C           -1.09270054722603        4.22079041292817        0.14629893212256
C           -3.26858602732743        0.55286409780866       -0.90384126219872
C           -4.01626827646379       -0.64694895888315       -1.06998631840589
C           -3.58725848514686       -1.79843005617261       -0.35776788359335
H           -2.97061679765964        3.16197289053471        0.36696721827545
C           -1.59469044344121        5.51284085270379        0.34324205636480
H           -3.53017545804016        1.42603332144555       -1.47906083179847
C           -5.11929281648673       -0.73889979107518       -1.92056752521795
C           -4.27819453557365       -3.01045045001532       -0.53310686940805
C           -1.97513514839877       -2.77084477143254        1.24282326355909
N           -0.03976575240718        1.67537752995166       -0.20186055671433
N           -1.84684443535010       -0.49096580309996        0.65900372455544
C            2.12334026918002        2.46772328948222       -0.65190231416772
C            1.12247501487499        5.17707982127432       -0.20606744520840
C           -0.75719897531573        6.60427973819537        0.26762833634495
C            0.59989935608078        6.43439457691703       -0.00811872634238
H            2.17171398118733        5.03498626468396       -0.41344105963557
H           -2.64574351202491        5.63927457202479        0.55571995956124
H           -1.15134096177414        7.59718901114337        0.42228830958825
H            1.24428616304099        7.29847976163945       -0.06429657022718
C           -5.78701158400643       -1.93907378563022       -2.07298324065175
C           -5.36191466753754       -3.07128451431949       -1.38097566196995
H           -3.94102266784977       -3.88243033794134        0.00605218386521
H           -5.44201257106513        0.13969695098836       -2.45900859121368
H           -6.63850344227406       -2.00137870232920       -2.73314084081654
H           -5.88707956388375       -4.00545802378190       -1.51187842707544
C            3.24787318200467        2.18377947422555       -0.97536509136733
H            4.23687076504352        1.94011968953503       -1.22538645274302
C           -1.50710191179151       -3.66648550900652        1.89945519169347
H           -1.09055493683570       -4.44108630240942        2.47041588023486
