61
 energy: -107.992098119000 gnorm: 0.000890724725 xtb: 6.5.1 (b24c23e)
Si           0.19561759272265       -1.65667144608876        0.58703399243286
O           -1.39126953872288       -1.30968372865387        0.52986068905622
C           -2.50552073475549       -2.06596535351004        0.10473408222312
C           -3.24227539797542       -1.25546148549845       -0.93267240380638
H           -2.15026533858185       -3.00242783972709       -0.33930580797515
C           -3.76114523238230       -0.00802862049409       -0.60906569587598
C           -3.36174202907631       -1.71978775142642       -2.23535267115558
C           -4.38403124811579        0.76591921534603       -1.57116780416159
H           -3.66976324376578        0.36208403157869        0.40057798891337
C           -3.99774998177575       -0.95168231127692       -3.19549293237098
H           -2.94847810576991       -2.68324065531887       -2.49517763027971
C           -4.50671783814508        0.29337347638527       -2.86697430352788
H           -4.77291920119271        1.73921959054273       -1.30667806143242
H           -4.08943694664072       -1.32371435871404       -4.20548743079993
H           -4.99617174644986        0.89501179248715       -3.61896042656238
C           -3.39305568969580       -2.39898590308367        1.31641748991965
C           -2.63341764917359       -3.14532909357517        2.29657418978984
H           -4.24563973284871       -2.98922854578235        0.97058024262907
H           -3.75731345666894       -1.47414997157494        1.77001497512776
C           -1.95465481267051       -3.73818399708362        3.08322381575781
H           -1.35801833424876       -4.26017960413167        3.76957587381040
Cl           1.20348216433181       -2.46261248228006        2.17341897769570
Cl           0.16618756873018       -3.46271817213909       -0.55170790826713
O            1.01134419469276       -0.93911826155032       -0.75603606870519
O            0.44555541186819       -0.06438131111032        1.50566540616861
C            1.78668899732801        1.25049844091923       -0.39109575055879
C            0.42847234826897        1.67414565250152       -0.02240521477772
C           -1.34276303444311        1.41376086334560        1.52694331768775
C            3.29203707369747       -0.53403152114976       -0.85468722738536
C            4.38698972864830        0.36244193572400       -0.88649999588373
C            2.81001238798971        2.15801309256520       -0.42224389137984
C            4.14613307481687        1.74796275449457       -0.68592835370833
C           -0.18811857494382        2.74907807996706       -0.60562627044002
C           -1.45798336206737        3.18798238497563       -0.14962796236838
C           -2.03219789146879        2.51789854419423        0.96212596466994
H            2.60365086235258        3.19371124880970       -0.20645007159485
C            5.21808907573099        2.64225817626475       -0.72503585523524
H            0.29166712100140        3.25407777763473       -1.42804684496011
C           -2.14786378410891        4.25412282904099       -0.73674486792760
C           -3.27250009505644        2.95146422190956        1.45989399680836
C           -1.83448199556875        0.69001181037049        2.61848256052878
N            2.03175707966497       -0.05546836767630       -0.65093879351388
N           -0.16141844487323        1.01710052139309        1.00385268275268
C            3.42597161448836       -1.91243914309853       -1.03190242535336
C            5.70168957660324       -0.07981097916911       -1.11488114770319
C            6.50029203756086        2.18551446436271       -0.95570001825657
C            6.73783222191249        0.82542933259673       -1.14827975192432
H            5.87671320237223       -1.13411214825217       -1.26281687978882
H            5.03003253509729        3.69427098078339       -0.57044575714358
H            7.32323071937159        2.88314248868823       -0.98376646306156
H            7.74513751828632        0.47997970732136       -1.32473678903940
C           -3.37008012218084        4.65335598695346       -0.23860016036154
C           -3.92813567729256        4.00367893880727        0.86153393449487
H           -3.69949014801649        2.44459362096357        2.31215489358787
H           -1.70925275622812        4.75798793360623       -1.58490136829092
H           -3.89732035730769        5.47481220616084       -0.69945376430952
H           -4.88315772961876        4.32859531238688        1.24599743867239
C            3.47742567605036       -3.10864183967944       -1.16846941731622
H            3.52282166099391       -4.15062329222111       -1.27875488649180
C           -2.23170706056332        0.04517558507719        3.55501764276039
H           -2.58869615219642       -0.52987481389113        4.35623791820503
