61
 energy: -107.994084436748 gnorm: 0.000687233252 xtb: 6.5.1 (b24c23e)
Si           0.63683222311760       -1.18708654457483       -0.38240587376322
O            1.74835533333501       -0.11445364547397        0.13174461936492
C            2.87458902115404       -0.29907310329632        0.95465267653455
C            3.93116847450342       -1.14176568794258        0.28920520678542
H            2.55728968919628       -0.78484893651295        1.88550834411633
C            4.09194757150221       -1.10864298675136       -1.08786446556509
C            4.76583437344751       -1.94416748329976        1.05448100568355
C            5.06879802604552       -1.87728145056530       -1.69490437028206
H            3.43134441568624       -0.49255389275420       -1.67929046752793
C            5.74751965864790       -2.70559840994231        0.44741098781921
H            4.63375169378183       -1.98182743132854        2.12600483534568
C            5.90021995578861       -2.67482097528637       -0.92848286632156
H            5.17752774335514       -1.85746542257699       -2.76924004423637
H            6.38807627298309       -3.33386063629173        1.04921741656499
H            6.66104437306509       -3.27756080512700       -1.40247821121396
C            3.44053632445126        1.09880433518534        1.27198821483763
C            2.47634602986370        1.89633677709595        1.99718328922425
H            4.34920289658070        0.98400386190784        1.86791802282347
H            3.68979918558535        1.59510199609559        0.33031648073111
C            1.64917276923892        2.52845755711613        2.58705437409715
H            0.94155756774437        3.09744837682928        3.11182354630489
Cl           0.70435422241937       -2.23888787938111       -2.13706350708764
Cl           1.22078242270255       -2.82716731214094        0.85465438425017
O           -0.79531562282505       -1.08131135460697        0.56717577534950
O           -0.04773248346151        0.17071761733768       -1.45612644760697
C           -2.38389307983387        0.47561589717783       -0.19524201709167
C           -1.37115410608683        1.53896426680121       -0.14036064795251
C            0.69992593454463        2.31734001865879       -0.98168656386643
C           -2.87831788373053       -1.85197585602886       -0.10204193202797
C           -4.22308810577179       -1.60831042140487       -0.47103407929063
C           -3.67410778060038        0.76266367958281       -0.54844689494082
C           -4.64588931276818       -0.26817541457679       -0.67855315338319
C           -1.58833271051078        2.71802705993351        0.52203078862568
C           -0.62025940792775        3.75385823945921        0.48817953566846
C            0.54658208556661        3.54815705389711       -0.29340995116495
H           -3.94844346977599        1.78235790165679       -0.76444870420634
C           -5.97518245660946       -0.01469951084233       -1.02305715440178
H           -2.49443066561617        2.84661432395984        1.09170482453237
C           -0.77459014686123        4.95805763947222        1.18427594631209
C            1.51783763227893        4.56030856788655       -0.35604632923891
C            1.79423345385449        2.06174708891255       -1.81478947693830
N           -2.02434063748983       -0.80271256691417        0.06987596545140
N           -0.23941058941550        1.35377224535284       -0.86011868949371
C           -2.36277259466908       -3.13041839499486        0.11766809987728
C           -5.15086846405452       -2.65264728061759       -0.62793566080651
C           -6.87121688564227       -1.05587613762889       -1.16254797290711
C           -6.45485756844538       -2.37172053029524       -0.96743380175336
H           -4.82089332256918       -3.66833649312738       -0.47447777791908
H           -6.29147015590001        1.00591687702527       -1.17894053514124
H           -7.89734761775211       -0.85129583235862       -1.42694927085384
H           -7.16331317517193       -3.17779331918078       -1.08375374894513
C            0.19713530170783        5.93341689552297        1.11416220488994
C            1.34133204105710        5.73231723843426        0.34311282559730
H            2.40204703534086        4.39873450651220       -0.95266886341351
H           -1.66351293338890        5.10919015395397        1.77898489156181
H            0.07341020106126        6.85757560956374        1.65817170804708
H            2.09499704091358        6.50352948131649        0.29639767350868
C           -1.85688577991824       -4.20788876734471        0.30654086669690
H           -1.41304979249413       -5.14426704501751        0.46824973884731
C            2.71928967952418        1.84966697744360       -2.55686153818189
H            3.52947509924145        1.66314028409229       -3.19707823190984
