61
 energy: -107.983703826035 gnorm: 0.000647300995 xtb: 6.5.1 (b24c23e)
Si           0.99364281507659       -0.02685484774279        0.31965634978322
O            2.15352366204665       -0.84833983312702        1.11204107083295
C            2.73670327667522       -2.10165822437484        0.85963271678681
C            3.78571912348188       -2.00228510414901       -0.21913068099955
H            1.95732334204564       -2.81010101801579        0.55201490451733
C            4.51629551020181       -0.83304120723028       -0.37573385777816
C            4.04348543682874       -3.08404833477657       -1.04986599226636
C            5.48999064885794       -0.74493528439766       -1.35454694707580
H            4.30433505391734        0.01012861239791        0.26504404829148
C            5.02033518140444       -2.99619404624702       -2.02498412641432
H            3.46630991241127       -3.99070857295101       -0.93873517505436
C            5.74596834804456       -1.82679754091723       -2.17911443051706
H            6.05123701961993        0.17070572089824       -1.47252794196802
H            5.21118790834009       -3.84025559781247       -2.67158842613746
H            6.50555393737125       -1.75783668797766       -2.94419221304002
C            3.38015830683741       -2.58848746898283        2.17271297402276
C            2.37147443012913       -2.91030403353447        3.15778057382679
H            3.99121983962095       -3.47076655092279        1.96316191689452
H            4.02219591739441       -1.79241935676175        2.55685995890628
C            1.50906687407529       -3.17682579983012        3.94325185082470
H            0.76801104328855       -3.39525456710794        4.65281961251297
Cl           1.46409636563676        1.59765238702249        1.60407602508409
Cl           0.87588424537727       -1.39385996802095       -1.34175344758314
O            0.36491839872313        1.09251508557573       -0.91815057714312
O           -0.52108372501444       -0.32076979799844        1.07017189142192
C           -1.67117535906812        1.88104558907271       -0.14211140892561
C           -2.20770356584597        0.51680543494165       -0.31647890648750
C           -2.02253778931780       -1.81692869910879        0.12197409712808
C            0.15274031118193        3.36829205628593       -0.47536361887215
C           -0.61808468563211        4.45989197455780       -0.00372850007783
C           -2.46657883210891        2.90264503888733        0.29689874512213
C           -1.95906866675260        4.22625547196006        0.40024994654983
C           -3.32905513137429        0.31218399183403       -1.07281566904917
C           -3.84952330977383       -0.99699893710646       -1.27377212072235
C           -3.16887600305663       -2.08494842788575       -0.66600037036444
H           -3.48356546736534        2.69603739337902        0.58858266507587
C           -2.72781917184063        5.29502299223052        0.87056370672976
H           -3.80597818810486        1.15298495359648       -1.54969761898340
C           -4.98453859359626       -1.24722738065176       -2.04804713710427
C           -3.64841807199949       -3.39100041082749       -0.86001647176952
C           -1.28745677921372       -2.81253452681851        0.76867401065902
N           -0.39399113825179        2.13201489080222       -0.51861060395586
N           -1.60556325114790       -0.53450641396930        0.28689264140871
C            1.46600807461334        3.50999135648809       -0.93328039290756
C           -0.09211597319825        5.76014969113678        0.07706193255140
C           -2.18996754130911        6.56315130618624        0.94136182184405
C           -0.87284651472043        6.79220460438678        0.54470959900827
H            0.92945484869774        5.92659082369811       -0.22641782991084
H           -3.74656675850291        5.11295064748609        1.17859569759617
H           -2.78974704158507        7.38282579499430        1.30666487569625
H           -0.46335369269039        7.78899192863619        0.60724447907477
C           -5.44067518359322       -2.53891865225531       -2.22182269152048
C           -4.77025271548542       -3.60677282877162       -1.62859607512077
H           -3.12165127244550       -4.21210126045387       -0.39937692754682
H           -5.49860590074619       -0.41753930231942       -2.50982309193428
H           -6.31852687670664       -2.72339734969842       -2.82201179110521
H           -5.13454406399686       -4.61244443705269       -1.77426024568486
C            2.58610424694470        3.61166855242190       -1.36380418638717
H            3.57028414826508        3.70523138266563       -1.71397451624938
C           -0.62438861324261       -3.64015940233070        1.34124735297536
H           -0.04638434940734       -4.35803980942558        1.84224152552684
