61
 energy: -107.903988195956 gnorm: 0.000881975858 xtb: 6.5.1 (b24c23e)
Si           0.29405414262739       -1.05769608991531        0.89868506133896
O            1.91873624662614       -1.58734120035231        0.35558479448798
C            2.37708002811425       -1.66848469478143       -0.81122699861246
C            3.76280688328776       -1.85806222465283       -1.07377441864797
H            1.69217406345021       -1.58928906294741       -1.65561993666823
C            4.68524830147069       -1.95167382724313       -0.01405631636218
C            4.23412599448160       -1.93986781940573       -2.39662538401631
C            6.02701219213291       -2.11166841025269       -0.27537107151124
H            4.30721504693695       -1.88734909399586        0.99421739744821
C            5.58004114989065       -2.10084844221777       -2.64317422555150
H            3.52795720366225       -1.87252679052854       -3.21069213953412
C            6.48100838668431       -2.18534053114400       -1.58779494944574
H            6.73172127313371       -2.18084285161240        0.54006488512914
H            5.93924178574994       -2.16217132096031       -3.66010252490628
H            7.53463004936651       -2.30979694316368       -1.78839603727576
C            3.65724224205047        0.71901633825776        2.21716062300797
C            2.37814662916716        0.51239631763197        2.14489883138247
H            4.14849662351197        1.46418137129774        1.61186229850073
H            4.27845389455408        0.15945743645672        2.89762519056718
C            1.11464410160375        0.27331476531225        2.03877622312944
H            0.42230728798722        0.80558985485243        2.67755091107158
Cl          -0.67771758611584       -2.39700337275100       -0.56494997819639
Cl           0.28596240228602       -2.54868151826569        2.41270772196369
O           -1.32986784380245       -0.32913299349297        1.41964492170238
O            0.20351227029690        0.15424598987057       -0.60878667863070
C           -2.39844164951650        0.80726210347778       -0.26713812812510
C           -1.33438405792989        1.82325830142562       -0.17146551898201
C            0.97416100870265        2.31190230127697       -0.37393317203581
C           -3.25462215482479       -1.24356086304456        0.54020848785119
C           -4.34309376785587       -1.17396368792719       -0.36282891401746
C           -3.44199834226533        0.94338883112088       -1.14114518898212
C           -4.44801499679355       -0.04918243871032       -1.22195184673325
C           -1.62489757793699        3.13833637619038        0.07321436819228
C           -0.59246122488652        4.10823300942615        0.15036972912933
C            0.74013285567056        3.67889189424780       -0.08346020563303
H           -3.48004721399527        1.80178690816093       -1.79296900198908
C           -5.52906361061336        0.03312808527935       -2.11165338096053
H           -2.64954842170251        3.43375307259261        0.23248435308499
C           -0.83701990816936        5.45697014988095        0.43440956007395
C            1.78480469782979        4.61671972397613       -0.02793471767647
C            2.23723909173900        1.81847281129395       -0.71991205245854
N           -2.33679024812420       -0.26152655182301        0.56524595662841
N           -0.05324008670457        1.42940338519020       -0.37911820574244
C           -3.08881276371952       -2.29366799310255        1.45268554943614
C           -5.31852828931377       -2.18515443659694       -0.42557188479711
C           -6.47207038616210       -0.96657650260362       -2.15184807735533
C           -6.36396026495813       -2.07717636996464       -1.30925786260551
H           -5.22160256178580       -3.03943138558119        0.22620183217377
H           -5.60592851037093        0.89044091273563       -2.76368064891170
H           -7.30141153183529       -0.89832942347190       -2.83955490437044
H           -7.11047652334952       -2.85520126078481       -1.35783563250033
C            0.20435927405129        6.35757080010392        0.48694976932723
C            1.51393052598240        5.93513923615650        0.25547741290365
H            2.79453421551824        4.28082959556391       -0.20653273492657
H           -1.85211164230365        5.77886858482791        0.61293135741759
H            0.00846160134988        7.39574306468012        0.70797413887716
H            2.32046916600695        6.65117461851798        0.30002317778138
C           -2.87734765109538       -3.16499921635222        2.25480194756281
H           -2.66653950249816       -3.93097719852711        2.93969479209276
C            3.29689521137803        1.36577515413506       -1.07102334884905
H            4.23204447132887        0.98534652223266       -1.35546820525110
