61
 energy: -107.988303608222 gnorm: 0.000721191344 xtb: 6.5.1 (b24c23e)
Si           0.96540678466064        0.16890832644765        0.70628747800165
O            1.71549859989757       -0.64862654373532       -0.46871363280126
C            3.01988083672839       -1.17419613156821       -0.49501498231258
C            4.04648216444539       -0.07123778447031       -0.51835619181853
H            3.17002376064143       -1.79578876280689        0.39673921403714
C            3.77295195998794        1.11324753284971       -1.18887529626393
C            5.26476740850361       -0.22503129755016        0.12769897530972
C            4.70620892555190        2.13361162148281       -1.20693239374022
H            2.81502715878446        1.23457005087033       -1.67265838433175
C            6.19968161697622        0.79438737392579        0.10218193013204
H            5.47234888449678       -1.13963006833814        0.66345996315376
C            5.92216356985569        1.97549294295600       -0.56471733780240
H            4.48591981531818        3.05740812579238       -1.72146525423175
H            7.14326859468699        0.67082667829296        0.61297232287287
H            6.64951102685733        2.77415175488211       -0.57716658812911
C            3.12991065810392       -2.04601645911753       -1.75917943923951
C            2.15103789891667       -3.11120723871365       -1.73059484410298
H            4.13844973590055       -2.46265978302630       -1.81908399578481
H            2.95090810125970       -1.41510361282377       -2.63334120196926
C            1.31457331618253       -3.96481911416486       -1.67225126689867
H            0.59105473744228       -4.72345725358734       -1.64326208472778
Cl           1.15579263307343        2.15345434621736        1.27548434927377
Cl           2.15443954854687       -0.51347736723072        2.35722182001935
O           -0.13547721888156        0.67911282000293       -0.71296302357071
O           -0.39738840731858       -0.57160376447719        1.44176895796763
C           -2.32478980746702        0.80133606891709        0.03196897462396
C           -2.30403204233908       -0.66784756943812        0.08112799979477
C           -1.13041330034923       -2.64602125519440        0.69193222683853
C           -1.17886044992506        2.74816995398651       -0.68401906707271
C           -2.28981353326004        3.55896738858147       -0.33691931043502
C           -3.43924928022463        1.52892462293105        0.35125244208476
C           -3.44589229495091        2.94088477015203        0.20804632241732
C           -3.27602879098936       -1.40075051609969       -0.54321018003188
C           -3.21549025511318       -2.82234484546286       -0.57047809529797
C           -2.10256230069880       -3.45063277130555        0.04896794515818
H           -4.31116518098680        1.02345795684735        0.73332872799619
C           -4.54336522788948        3.73358998100709        0.56143084464809
H           -4.07855319829092       -0.89126755973657       -1.05123241158099
C           -4.18541908898639       -3.60860119098808       -1.19555574868830
C           -1.99975957089018       -4.85213095099114        0.01445683161206
C           -0.00846315505529       -3.17403656261115        1.33155099235066
N           -1.21681995082263        1.41649421942789       -0.45023818328416
N           -1.28864288288213       -1.29345099092295        0.71825762550194
C           -0.03889559247983        3.26897653352087       -1.30691092969545
C           -2.27382860413423        4.95245126902843       -0.51370728504661
C           -4.50254331837073        5.09994344225660        0.38301006546892
C           -3.36739710957785        5.70651474843881       -0.15440649893144
H           -1.38911885884504        5.41354611288359       -0.92390041235937
H           -5.41979521905029        3.25939696907813        0.97719227027029
H           -5.35224140250463        5.70488073528422        0.66066878190331
H           -3.34740295492613        6.77761209148869       -0.28717818189159
C           -4.06495836419537       -4.98446712557228       -1.21440670601094
C           -2.97129799335948       -5.60159560658060       -0.61072088576782
H           -1.15342166748172       -5.32206877502634        0.49191734423388
H           -5.03023586746071       -3.12629498341800       -1.66420938317556
H           -4.81987742423604       -5.58444004073010       -1.69916062609125
H           -2.88702772187112       -6.67779867712380       -0.63256907683251
C            0.92034071790490        3.70391399820453       -1.89043261392259
H            1.76938196390265        4.09048433114897       -2.36910618797137
C            0.97151100512824       -3.58870529923468        1.89733803553860
H            1.82535561206069       -3.95021286485641        2.38685526060157
