61
 energy: -107.907422504437 gnorm: 0.000445579887 xtb: 6.5.1 (b24c23e)
Si          -0.49910308372621       -1.90964748595419       -0.19314838316203
O            1.04088763314009       -1.22670516643355        0.63421219127485
C            2.23648970434907       -1.26421151580861        0.23113254696434
C            3.28135676672508       -0.52515915052355        0.86345209459477
H            2.50276274444891       -1.94983319051934       -0.57431417711163
C            3.00240490146021        0.36066534114803        1.91976614892985
C            4.60102357502415       -0.62364734643047        0.39327258324174
C            4.00741446297200        1.11786951892805        2.47593546257306
H            1.98750803201432        0.42235749879242        2.28264542242188
C            5.59960621564954        0.13445423422057        0.96374452520321
H            4.81815305657814       -1.30349076189667       -0.41715430066247
C            5.30794362239572        1.01324786668340        1.99870954676539
H            3.78561797322816        1.79781028951269        3.28518258723035
H            6.61352964463367        0.05033634560474        0.60144589896640
H            6.09318299572761        1.61061915960880        2.43662512135586
C            1.94799469866820       -4.96467275992368       -0.76587271561615
C            1.16196969989075       -4.00939590322759       -1.15456577195304
H            3.00924416212402       -4.82007883061978       -0.63735918199100
H            1.56716432381566       -5.95016817288164       -0.55605568782565
C            0.36609689402049       -3.04303744527050       -1.47215489579412
H            0.14017581261450       -2.84499450779516       -2.50966020373155
Cl          -2.49780187639035       -2.16068289869577       -1.06868640898999
Cl          -0.68785551204158       -3.29557097156000        1.38703265161425
O           -1.22931515262020       -0.64240139318736        1.02142334027369
O           -0.34695156282009       -0.45605356780728       -1.39009842713678
C           -1.70984719631358        1.35687224704457        0.00651466815060
C           -0.26091306458804        1.52374492200327       -0.20916722424830
C            1.65646971313262        0.70768098277368       -1.34705155757417
C           -3.42250464784089       -0.03599845910474        0.84414694475731
C           -4.41187769221075        0.88439423958010        0.42467178315098
C           -2.61612592144936        2.30014864387349       -0.39025698653028
C           -3.99988857969396        2.08749409363190       -0.20540556862412
C            0.43590992158128        2.59082707031448        0.28680431095204
C            1.82280408050609        2.73196592936170        0.01717587603750
C            2.43172466761610        1.79414395617309       -0.85465589622861
H           -2.26848942743859        3.19935211612783       -0.87455889444362
C           -4.97651172226802        3.00879429566276       -0.62342348378319
H           -0.06920022650770        3.31776487652342        0.90208749213998
C            2.59602853606321        3.76846121102768        0.55244640809484
C            3.78557909885509        1.94495326438658       -1.18916698650895
C            2.12457230442615       -0.15849816227277       -2.34573802366135
N           -2.12800680637448        0.22126312652781        0.62556892873161
N            0.35231097971572        0.59532311733568       -0.97982068197207
C           -3.72502280935370       -1.21632903098082        1.54276601618321
C           -5.78425644523879        0.63591560413038        0.61617678677125
C           -6.30652222339569        2.74299942194933       -0.42564885587478
C           -6.71117132387119        1.55264021985972        0.19483846206102
H           -6.08069977077828       -0.28763057343960        1.08846256078009
H           -4.66021616129862        3.92175519894209       -1.10529127920755
H           -7.05344174172760        3.45114247679000       -0.75127843265251
H           -7.76369816653040        1.36141598314850        0.33674212444960
C            3.93037749997083        3.88057451743614        0.23138213433201
C            4.52097933634846        2.97455936766953       -0.64756294227387
H            4.23556662812014        1.24073083294039       -1.87134603223935
H            2.12992530515635        4.47631792722227        1.22154489748003
H            4.52113992520071        4.67888896563436        0.65425763209162
H            5.56391805851093        3.08072409473960       -0.90373233300108
C           -3.91792183537460       -2.22390583607937        2.16982598571672
H           -4.07359707524288       -3.12318961641892        2.68745297861964
C            2.49290345830137       -0.88142277218149       -3.23575307205194
H            2.82044759210718       -1.52747043828723       -3.99411670705626
