61
 energy: -107.990638685708 gnorm: 0.000988923373 xtb: 6.5.1 (b24c23e)
Si           0.62892255401807       -1.06488893572889       -0.23825132746279
O            1.77583060299040        0.06300696516395       -0.00860288802149
C            3.01201122032847        0.09357850756266        0.67107116956804
C            3.88837701689953       -1.07030670738676        0.26918809106976
H            3.48493094954342        1.02002878338284        0.30239975979612
C            3.95685425799119       -1.37773608916557       -1.08528336260859
C            4.62449060955334       -1.82830431879082        1.16741147522558
C            4.72848373903128       -2.43201279274014       -1.53363824668702
H            3.37714191966940       -0.79095214179425       -1.78283045647057
C            5.40667641852497       -2.87781890215271        0.71587772089610
H            4.58586274257377       -1.62343103849180        2.22513100046832
C            5.45984344253708       -3.18550195699215       -0.63133055928444
H            4.75574442471041       -2.66695709007499       -2.58729317116574
H            5.97032981551029       -3.46432320873207        1.42659206958164
H            6.06388348015641       -4.01144283676268       -0.97713198574947
C            2.77300602451562        0.24219642150060        2.18022575852578
C            1.93254054624905        1.39328513530755        2.43133134205224
H            3.72908613061379        0.38073390173679        2.68972606496399
H            2.28109175899944       -0.65879945865192        2.55287395662003
C            1.24208909236422        2.35783013973972        2.58933293371181
H            0.64209778247618        3.20000060784325        2.76451628949193
Cl           0.50933036344879       -2.30508053532320       -1.86403108921020
Cl           1.34393232657718       -2.57336181834187        1.09815074302535
O           -0.70299444537220       -0.86234038900435        0.83428320178657
O           -0.19161323703647        0.16930474389667       -1.37449822130604
C           -2.39711778511257        0.57139477222802        0.05511944708278
C           -1.40977613947717        1.64985817520089       -0.08611237128835
C            0.58777578575358        2.34647843453201       -1.14753967330704
C           -2.81540572270138       -1.73885557647537        0.44731180299949
C           -4.19065161312510       -1.56587781835957        0.15849106692611
C           -3.71838768466160        0.79189388268060       -0.22215367857375
C           -4.66677747921742       -0.26701134479644       -0.16384972184001
C           -1.59206911451054        2.88611693331398        0.47354213319118
C           -0.63856463502601        3.91624746950771        0.26909728730416
C            0.47589938648283        3.63492429213327       -0.56426382365349
H           -4.03728961125842        1.77598128994394       -0.52505012197249
C           -6.02414320450930       -0.08276037279483       -0.43484332558344
H           -2.45272363881914        3.06431104186611        1.09762943819364
C           -0.75328035704812        5.18199740028015        0.85558935885029
C            1.43866799058651        4.63418294104492       -0.78231484720638
C            1.62935562375050        2.01197669125601       -2.01968951270395
N           -1.98018983571393       -0.66124615572284        0.42925476363980
N           -0.33860312510124        1.40149971769847       -0.87557022266738
C           -2.25269787308451       -2.97530832546949        0.76781423769263
C           -5.09561763122214       -2.64108092693318        0.18753631553781
C           -6.89623715727932       -1.15250170561860       -0.39261376986998
C           -6.42814133963795       -2.42879116291143       -0.08450205877752
H           -4.72499713404066       -3.62560297762248        0.42718995783640
H           -6.38124869015784        0.90664250120012       -0.67895585665735
H           -7.94405089532228       -1.00150015933550       -0.60237848892850
H           -7.11850260629573       -3.25822981410069       -0.05946222140163
C            0.20747656133678        6.14496034246616        0.63039729809754
C            1.30203974240711        5.86824816026884       -0.18817863624041
H            2.28403347871545        4.41322235183193       -1.41532129661733
H           -1.60268735482934        5.39053574399420        1.48954086088841
H            0.11420105656627        7.11728102955290        1.08985892050904
H            2.04843520282352        6.62983340772195       -0.35536248498310
C           -1.71175817062121       -4.01782406392442        1.03729988848020
H           -1.23783090216608       -4.92468321328519        1.26687361720441
C            2.51233976015660        1.72448324328968       -2.78654046923832
H            3.28904357548662        1.47304580933768       -3.44557908174038
