61
 energy: -107.983715724498 gnorm: 0.000618272869 xtb: 6.5.1 (b24c23e)
Si           0.53256575494785       -0.80354861254915        0.29478935451969
O            1.96523635580137       -1.54339881082902        0.16054425027194
C            3.20375644486063       -1.40693655476275        0.80716687167291
C            4.29677151166255       -1.19669610753485       -0.20754861029583
H            3.17209843327491       -0.55100746480147        1.49078915157097
C            4.18646323276196       -1.72089469058318       -1.48780235728286
C            5.43777245786682       -0.48529033110083        0.14253000771931
C            5.20354968614369       -1.53315889016048       -2.40746220098962
H            3.29231451197379       -2.26115485509087       -1.75715001173498
C            6.45690579656632       -0.30476168851925       -0.77576308996230
H            5.52124362669556       -0.06817342730324        1.13637912223636
C            6.34142070509090       -0.82827825178645       -2.05326786509429
H            5.10849848673979       -1.94046895004248       -3.40336120255928
H            7.34130383776639        0.24959465287860       -0.49568213041135
H            7.13632990627498       -0.68402787957068       -2.77057331072080
C            3.45579513084594       -2.69089519439913        1.62531278886529
C            2.43848706147779       -2.82140967126807        2.64568934114865
H            4.44711642630327       -2.64102245797675        2.08220348100054
H            3.41209887368974       -3.54950891437183        0.95025990885007
C            1.55165420278588       -2.86330976762319        3.44759519169244
H            0.79513303322293       -2.91796279105832        4.17167029029818
Cl           1.13923314962665        0.57728906610542        1.85859630155415
Cl          -0.22714178580258       -2.35583727095074       -0.96139988180218
O            0.24338860871302        0.35984806715938       -0.93497512699127
O           -1.01520340769441       -0.64603231933667        1.12061139580441
C           -1.62586181883035        1.60033797518228       -0.28499791498927
C           -2.46014334700123        0.38424740038660       -0.37542706925150
C           -2.89066799267581       -1.82240980577843        0.40281664485883
C            0.52045362921132        2.61838976356693       -0.47677877051505
C           -0.00981486646608        3.87492447596765       -0.09555004794123
C           -2.19024034187435        2.79642057229286        0.06411909805788
C           -1.40026928564678        3.97474623068826        0.17594323437490
C           -3.59326323300163        0.36803193597296       -1.14033752763121
C           -4.42733377184502       -0.78267309172629       -1.18374769553559
C           -4.06272022669849       -1.90152004627400       -0.38932003133461
H           -3.24278462144949        2.83831827452405        0.29280860655948
C           -1.93599651235829        5.20796248455323        0.55429987448022
H           -3.84383390048258        1.23110362966122       -1.73560479983695
C           -5.58318926779419       -0.84807339979579       -1.96684952873851
C           -4.86827003936902       -3.05229901938402       -0.41016912654543
C           -2.46597961353340       -2.86100998711786        1.23616617565846
N           -0.30534499917438        1.54559464719975       -0.57784816789170
N           -2.14412533965162       -0.69405379498578        0.38219875315509
C            1.87142340291908        2.40394045503010       -0.76223400224116
C            0.79900233307936        5.01694374169930        0.02741109203854
C           -1.12273858771011        6.31795402066722        0.66600302354673
C            0.24252320367003        6.21849977598531        0.40406127642370
H            1.85535656189774        4.92957688300774       -0.17353144256603
H           -2.99329213796272        5.27982586453713        0.76139623308596
H           -1.54463891108558        7.26657283266238        0.96111555469515
H            0.86857696069324        7.09273013986280        0.49927063485404
C           -6.36073661606327       -1.98776672531741       -1.96950093796240
C           -5.99995511654303       -3.08773200342533       -1.19234469126765
H           -4.57823715738701       -3.90006002946741        0.19040053595492
H           -5.85754253708089        0.00453167402804       -2.56989884549441
H           -7.25173495136565       -2.03021668246902       -2.57724405911574
H           -6.61469794868247       -3.97491353702198       -1.20646622549410
C            3.02153287770294        2.15211216725190       -1.01933771309778
H            4.02930672799678        1.94273660798561       -1.22241565135456
C           -2.08735284603162       -3.73120464819183        1.97800043004194
H           -1.74452575100443       -4.50484866629205        2.59765341166737
