61
 energy: -107.989432076728 gnorm: 0.000585835455 xtb: 6.5.1 (b24c23e)
Si           0.28305971228290       -0.94878562093654        1.32827296936601
O           -0.02088048102642       -2.25595451732950        0.43050338621067
C            0.23446108449334       -2.56992760934305       -0.91715056888277
C            1.65426065322894       -3.03606868518077       -1.11426839112333
H            0.06225633786887       -1.68220909089976       -1.53475491448416
C            2.38232265493628       -3.57284428649225       -0.06269213045803
C            2.24095045229469       -2.93976208700726       -2.37004281402028
C            3.68489817740473       -3.99683549770696       -0.26100073728931
H            1.92725091897428       -3.64669391808103        0.91291006160125
C            3.53843077161405       -3.37478342413740       -2.57056917855249
H            1.67886962613868       -2.51644740063480       -3.19068965573770
C            4.26499007331896       -3.90143756889032       -1.51444578544907
H            4.24699555108445       -4.40385407261409        0.56629019153471
H            3.98654667572005       -3.29562194740141       -3.55093895452119
H            5.28141664651696       -4.23422235285129       -1.66935610398846
C           -0.76949742480100       -3.66731941737336       -1.32157474881144
C           -2.10035195744910       -3.11052432950554       -1.43119826574922
H           -0.46829153518147       -4.10090756506464       -2.27849648370644
H           -0.75610022079060       -4.44445715927611       -0.55428528649818
C           -3.17230587204080       -2.58619535730382       -1.52022265312514
H           -4.12623152957147       -2.15733320730861       -1.60018863102087
Cl           2.10256026033554       -0.26217087271200        2.02214346476596
Cl          -0.21792263663521       -1.98473596792206        3.07717501007358
O            0.59438490929905        0.02939346344996       -0.33098396429992
O           -0.93305958726983        0.21336537110675        1.65483979043543
C           -0.05486268991236        2.22635096145281       -0.03347402985876
C           -1.44064714148983        1.73554685917466       -0.06387780237768
C           -3.02801515474300        0.10862708134934        0.65058066845337
C            2.22157833714224        1.67107904509382       -0.38887134293491
C            2.60185373940057        3.02805112592088       -0.23314840994683
C            0.25046311452045        3.55468645883190        0.09565373518780
C            1.59682134158630        3.99549894650624        0.03070541263836
C           -2.35538103275287        2.29675614989321       -0.91209205561309
C           -3.67871164920415        1.78076001127738       -1.00912686993791
C           -4.00886690124259        0.65108831163278       -0.21427133392934
H           -0.54097482771199        4.26589125159571        0.26767934240819
C            1.96488617056206        5.33577369180253        0.19765701100290
H           -2.05814448941213        3.12163671450753       -1.53899376266089
C           -4.64139151920845        2.32424970973583       -1.86115747587467
C           -5.30098291191299        0.10408964282435       -0.30402987800541
C           -3.25683945288592       -1.00184333232300        1.46313237000153
N            0.92584033886536        1.31419955827411       -0.24643943493613
N           -1.79620879306329        0.69208286787973        0.72129508879686
C            3.13335983167968        0.66115657485072       -0.71938354470840
C            3.94264196218949        3.43574064517778       -0.32712564876531
C            3.28754883750021        5.71100578608620        0.10685289328105
C            4.27399640707874        4.76006578060688       -0.15616403518643
H            4.69881546956114        2.69191773894371       -0.52434893666668
H            1.19782455839066        6.06799142925945        0.40083023186761
H            3.56404863815802        6.74582246286813        0.24023869911571
H            5.30634533222398        5.06788373145546       -0.22335368858544
C           -5.90510407241786        1.76997430208662       -1.93301557048753
C           -6.23009105978629        0.66136940236224       -1.15447392856098
H           -5.54617598099336       -0.75065572071233        0.30812155841280
H           -4.38514997103033        3.18316723899232       -2.46336579418843
H           -6.64331606441910        2.19663959659274       -2.59464785494603
H           -7.22052460612011        0.23616591553271       -1.21859323497677
C            3.87783546043274       -0.22918506016324       -1.03968898093544
H            4.53610533785578       -1.00689910197005       -1.28789278274510
C           -3.40278765792204       -1.95745791902584        2.18284620158434
H           -3.52165116166664       -2.79384673695684        2.80378857780796
