61
 energy: -107.981494429481 gnorm: 0.000541114013 xtb: 6.5.1 (b24c23e)
Si           0.64822379177736       -0.66831260272207        0.42388934282120
O            2.16333898157752       -0.81573852926377       -0.18674032366817
C            3.05815063274665       -1.89368632028759       -0.22857845026951
C            4.32301207208233       -1.42314359005682       -0.90223155765135
H            2.60052097255058       -2.71081141845967       -0.80634579754286
C            4.94918354331823       -0.27238274337054       -0.44015743615154
C            4.88317166563374       -2.12446717149561       -1.95929799505297
C            6.11634928512678        0.17309102691590       -1.03302660159855
H            4.50098865546457        0.26894487136725        0.37968157582758
C            6.05499556331463       -1.68070668179591       -2.54877490354709
H            4.39957085112447       -3.02001075885666       -2.32253090736078
C            6.67283386104810       -0.53124057685158       -2.08816000625254
H            6.60170692408738        1.06826068908467       -0.66930773584712
H            6.48494616360328       -2.23276135737822       -3.37193724114071
H            7.58555706155129       -0.18423476542644       -2.55042094589647
C            3.40460852532852       -2.41869591375956        1.18241746158239
C            2.32343006630117       -3.19707478371726        1.74115053215822
H            4.30222435430814       -3.03962276595642        1.11225165658359
H            3.60904211147375       -1.56377770868259        1.83084418304672
C            1.40670077097807       -3.84054942041729        2.16151431624505
H            0.60659755708043       -4.40525247298231        2.53365343972659
Cl           1.23356371404840        0.00363526695749        2.29090850488162
Cl          -0.12084734192719       -2.41101360891414       -0.44866413874030
O            0.26085188366824        0.55025982927821       -0.70749764622012
O           -1.06708150554989       -0.38917634827718        1.24024729315983
C           -1.70888236884033        1.73665225701711       -0.23744791852954
C           -2.48501292076928        0.49143532804459       -0.35199998168865
C           -2.89402047593918       -1.65075550728364        0.57097803828336
C            0.41321869855407        2.81433647947601       -0.20204383153665
C           -0.19592482745178        4.05914155015594        0.09436611233967
C           -2.34609273979542        2.91965536734063        0.01761884741731
C           -1.61073896632496        4.12519824708555        0.19645278005354
C           -3.56336056045204        0.38068807520829       -1.18702858687026
C           -4.34077644946766       -0.80572639481921       -1.20713645588783
C           -4.00245291217048       -1.83818923665653       -0.29331167768496
H           -3.41910651095784        2.93034399982286        0.11874613644988
C           -2.22207772409564        5.34839313372547        0.47581219849248
H           -3.80966174600106        1.19666244420917       -1.84696365451414
C           -5.42758965151921       -0.98536806311816       -2.07076685940447
C           -4.76860584170048       -3.01569111176336       -0.27165666407742
C           -2.54833324249046       -2.58036217178705        1.55861162003766
N           -0.36185263130874        1.70361286704998       -0.36263684138056
N           -2.15831454246793       -0.52120397844276        0.48647659305851
C            1.78870625050178        2.67504197386948       -0.38923094888994
C            0.55921476899452        5.22933646221860        0.28143963227981
C           -1.45941174454486        6.48649304633961        0.65391162008277
C           -0.07133056917573        6.42214893434553        0.55769104174524
H            1.63385449593850        5.17197409316294        0.20645496988520
H           -3.29827392623698        5.39223419636879        0.55240295710545
H           -1.94021200963541        7.42815185518479        0.87053824453965
H            0.51560831685758        7.31664742167541        0.70179474114697
C           -6.16141543609062       -2.15103100362833       -2.03393681442704
C           -5.83040942054095       -3.16409395804489       -1.13350615120305
H           -4.50181122740236       -3.79627897647762        0.42354831325493
H           -5.67962691009503       -0.19832454051643       -2.76572295527921
H           -6.99688980990229       -2.28312630588091       -2.70453776076237
H           -6.41305049863363       -4.07259650482618       -1.11590218670383
C            2.97158019750307        2.55613023942505       -0.58720391692446
H            3.99971249232642        2.44447400554545       -0.75930350700792
C           -2.27810484536367       -3.34319950970922        2.44977441855453
H           -2.04067787201268       -4.01693585926173        3.21779382895886
