61
 energy: -107.988424378284 gnorm: 0.000556299242 xtb: 6.5.1 (b24c23e)
Si           1.03906327197372       -0.12738099277402        0.69694174810091
O            1.42693909122882       -1.15572570295254       -0.48858673482317
C            2.36270043227553       -2.20521443767355       -0.49503056866074
C            3.77151206025927       -1.67991205179423       -0.39683621597711
H            2.15827727170196       -2.86762117173323        0.35571007957727
C            4.09659890003984       -0.45902130480286       -0.97182374075326
C            4.75115744103758       -2.40538770112436        0.26599928353953
C            5.38497034153702        0.03448245310988       -0.87541057692451
H            3.32618876680433        0.10864347178035       -1.47268081948868
C            6.04125130676785       -1.91396302043314        0.35399347288890
H            4.49661923036842       -3.34887006567862        0.72617250029045
C            6.36021621430385       -0.69266840952616       -0.21493421072687
H            5.62968112163292        0.99081185265595       -1.31386909381469
H            6.79730443403727       -2.48047041580098        0.87748124249757
H            7.36551473149412       -0.30515779202554       -0.13693605352705
C            2.16116892788553       -2.97792492859802       -1.81160330290918
C            0.81041923611206       -3.48841559705648       -1.90167463048055
H            2.87850137272543       -3.80072918300201       -1.85689818601211
H            2.34463921791891       -2.29638309417784       -2.64576478513601
C           -0.31997891298501       -3.87856514837941       -1.94498953603331
H           -1.30682023607022       -4.22937972968009       -2.00179511539121
Cl           1.97357455171753        1.60329570407795        1.35111380117109
Cl           1.80819304394149       -1.26528054831538        2.34726193828283
O            0.29561207513609        0.81385856884010       -0.73114850532927
O           -0.53614105119476       -0.27663828681958        1.36858350827414
C           -1.71736696823895        1.74521587634949       -0.06716822355215
C           -2.25732485720652        0.37754160264211       -0.07850209567953
C           -1.95739340516022       -1.90755673247282        0.51394705705824
C            0.11876614175653        3.12441078423190       -0.65299328279185
C           -0.62065213218702        4.28916521615153       -0.32207263315531
C           -2.48798693383602        2.83426429899985        0.23732375605713
C           -1.95170465983198        4.14556100748030        0.15064138447155
C           -3.39295975783577        0.07924564929256       -0.78026309859473
C           -3.87024554151757       -1.25897123167028       -0.86191633771574
C           -3.11911865422754       -2.27221820971183       -0.20917187891646
H           -3.50565033722969        2.69035524898547        0.56208513498520
C           -2.68491604725013        5.28792582116319        0.48964926379637
H           -3.91095740482563        0.86357349768261       -1.30768917103784
C           -5.02095238381960       -1.60954542075398       -1.57113501677832
C           -3.54959442425164       -3.60779399062575       -0.29416556105213
C           -1.15935891801050       -2.83318506348943        1.18710359482836
N           -0.43408743137554        1.90259821578603       -0.47651508812299
N           -1.59465082420359       -0.59696750588593        0.58416429931704
C            1.40406160281781        3.18706428724489       -1.20348759242720
C           -0.07092995561968        5.57583956664637       -0.44658161555285
C           -2.12185767565124        6.54001039027209        0.36445872499567
C           -0.81609478581552        6.68106554975300       -0.10470692660202
H            0.94194237983687        5.67534333901377       -0.80397757718885
H           -3.69561659718692        5.17338311268724        0.85170360254209
H           -2.69290781243942        7.41646111629276        0.63045112916301
H           -0.38685300767641        7.66701950742334       -0.19794192673449
C           -5.42560961593870       -2.92836480081791       -1.64018890534723
C           -4.68764797642465       -3.92351523982568       -1.00243326246108
H           -2.97461816199577       -4.37094913333901        0.20804368006792
H           -5.58896082999192       -0.83581816763676       -2.06573526840107
H           -6.31606888689924       -3.19038127001556       -2.19085788131198
H           -5.01269956482903       -4.95132301044602       -1.06427777608749
C            2.48873179572313        3.23906249866497       -1.72371781555257
H            3.44715065207011        3.28175400344294       -2.14739271670264
C           -0.44808964732422       -3.60245326008610        1.78277485569560
H            0.18008678596897       -4.26254502157783        2.30165767012556
