59
 energy: -108.585676548733 gnorm: 0.000736085683 xtb: 6.5.1 (b24c23e)
Si           0.68099364012952       -1.29700540704958        0.52760694498366
O            1.59829467905706        0.01609000349832        0.38749635504605
C            3.00137259153973        0.21678874499670        0.57610283882461
C            3.76507864026886       -1.00298339404442        0.12995925921718
H            3.25060510689964        1.05379698649784       -0.08987234101599
C            3.87144452511727       -1.22624152281107       -1.23942477133701
C            4.28818233047662       -1.93737813688378        1.01285338540929
C            4.48541805681331       -2.36853303753563       -1.71758801953727
H            3.46150543287004       -0.50073944048763       -1.92692833037662
C            4.90798833318425       -3.07762713902114        0.52989282521218
H            4.21128562865990       -1.79344538729633        2.07846090225426
C            5.00460746476184       -3.29835894063879       -0.83233323707668
H            4.55622545924149       -2.53288301429486       -2.78207752560776
H            5.30906275154549       -3.79914100112698        1.22572978507784
H            5.48174435880905       -4.19305694328365       -1.20358679766837
C            3.24114683709296        0.65059233479303        2.02629679580427
C            2.59387316422074        1.92273415426015        2.27121748982217
H            4.31560390878563        0.74591310042620        2.19945884068303
H            2.82459392235281       -0.09762016525621        2.70382044855897
C            2.03940462286231        2.97244612468671        2.42166196177454
H            1.57004435762918        3.89612325078221        2.58477700272524
Cl           0.60828325713183       -2.53453383581763       -1.03101771704145
Cl           1.22000192520410       -2.30907434838082        2.19158860336035
O           -0.77321853786268       -0.70009165524732        1.06873619745620
O           -0.32471012222363        0.22694036853678       -1.46534110506911
C           -2.45075667667571        0.54731081755774        0.00773307534719
C           -1.46970333661027        1.63839220166489       -0.10098475663168
C            0.54342529751210        2.30504821972789       -1.11179571364746
C           -2.79751954169806       -1.76637152570710        0.49683373965938
C           -4.15067442863535       -1.67170003467767        0.07272560634303
C           -3.74421416536265        0.68984910863849       -0.39476377539934
C           -4.64906932443987       -0.41557841801510       -0.36366467760654
C           -1.60550650679886        2.84883387538114        0.51704509303883
C           -0.62914860438493        3.85591512639235        0.35600278403244
C            0.47987450546712        3.57246108907352       -0.48163952079151
H           -4.07872684541911        1.64074622874046       -0.77649278259100
H           -2.46119412338372        3.02380156865554        1.15059648421465
N           -2.00545756102748       -0.64444967618291        0.47710354531488
N           -0.40136097420372        1.36521566197295       -0.91519109525068
C           -5.98021563671321       -0.30807814984454       -0.76170498308475
C           -6.81113351452445       -1.41257342419226       -0.73446273817477
H           -7.84089354044633       -1.31933143166764       -1.04328288091928
C           -6.32137650035059       -2.64547024355973       -0.31334861568923
H           -6.97481222647341       -3.50436415451906       -0.29890473672595
H           -6.35378727351753        0.64965744652635       -1.09231806348980
C           -0.70729809382478        5.10659614740734        0.99228646734308
C            0.28006923811425        6.04075783715400        0.80463111434982
H            0.21973173488476        6.99907465495381        1.29809965262365
C            1.37387259871719        5.75911083172135       -0.02327153993990
H           -1.55238944885597        5.31390155110969        1.63187474624641
H            2.14305157531669        6.50395429367621       -0.15803847297927
C            1.61116291628677        1.96541080666815       -1.96049991710193
C           -2.25790291527090       -2.95743621433996        0.96761590046240
N            2.49565485216170        1.71571427071846       -2.64888053660414
N           -1.83604885258224       -3.95274474170412        1.37074683857933
C            1.47711946887295        4.54768476433203       -0.65937992036132
H            2.31995678359066        4.32683124093257       -1.29631654645802
C           -5.00928195920418       -2.78175688882135        0.08592017677710
H           -4.62685125508662       -3.73611653907929        0.41381525763606
