59
 energy: -108.500964512319 gnorm: 0.000876242298 xtb: 6.5.1 (b24c23e)
Si          -0.51920880606639       -1.74152669083595       -0.56893229302082
O            1.54132994515646       -0.70072074073375        0.38362774647096
C            2.48299428298193       -1.42192015536350        0.65285525835797
C            3.75523818040679       -0.93300417870194        1.16329924343535
H            2.41009477058112       -2.50642596776465        0.50287908798078
C            3.92332856501210        0.41991978568096        1.47225287665949
C            4.82598605143895       -1.81382755835193        1.32886190427522
C            5.14078550297074        0.88284450784107        1.92673735424520
H            3.08458943391597        1.08951076687363        1.35507396897467
C            6.04227393166527       -1.34418177294806        1.78416330403460
H            4.69206418393625       -2.85898028220657        1.09427445955118
C            6.20152224301501        0.00184644557098        2.08084568745362
H            5.26609329958612        1.92926464474917        2.16233422970962
H            6.87125906409720       -2.02420592277551        1.91010311523236
H            7.15447119130610        0.36455624537225        2.43647789161572
C            2.06582471518769       -4.66070442834332       -1.41299793446859
C            1.35202060718414       -3.60584715130438       -1.64737416997620
H            1.65588927472904       -5.65016446680650       -1.52861427699477
H            3.09818608206122       -4.59914234964069       -1.10879787288996
C            0.61358519417794       -2.56564030934447       -1.86152903337775
H            0.59499929694808       -2.13281125072361       -2.85125498904877
Cl          -2.40867450903129       -2.18275094400175       -1.37462261343219
Cl          -0.20030081468471       -3.12975969918069        0.96918734040900
O           -1.16768427623768       -0.67171317038469        0.75351359288301
O           -0.39854969667999       -0.15894512092263       -1.57301092924836
C           -2.01285319507101        1.34780352056808       -0.02737982002914
C           -0.62806327199710        1.75675463935638       -0.29809311367438
C            1.41888138523000        1.25184399070077       -1.36066887995512
C           -3.45000699578180       -0.32860133771652        0.81459065671287
C           -4.59056324319931        0.47084495828157        0.55185104224630
C           -3.07144870993898        2.17914527827796       -0.27481717099978
C           -4.39993005993843        1.76264950915568       -0.00759734026300
C           -0.11877181677735        2.92347114079754        0.20785225143686
C            1.22712946034136        3.29668179418689       -0.03984531064745
C            2.01568177748973        2.43337485260892       -0.84488893535606
H           -2.89118083797932        3.15074963729168       -0.70616021892748
H           -0.74082016582035        3.54657939674479        0.82992034715949
N           -2.21102990090077        0.12409560572670        0.51585341479003
N            0.12400869909889        0.95170627120052       -1.08251513687924
C           -5.51571326621793        2.56617512111694       -0.27165827553569
C           -6.78309669410663        2.10785343797368        0.00878385356166
H           -7.63950256633568        2.73143264718560       -0.19728555795493
C           -6.96955205809454        0.83690408947668        0.55774238659142
H           -7.96931385136978        0.49026124629746        0.76933931802466
H           -5.36587597325931        3.54633277077817       -0.69890284668331
C            1.80358007116616        4.45795939847273        0.48768070454854
C            3.12309852849309        4.75919381048409        0.22952691428429
H            3.56123346919929        5.65578796258034        0.64068603070111
C            3.89755082844849        3.90997193766665       -0.56140981155455
H            1.19942894175619        5.11028939950557        1.10018478490048
H            4.93010002601046        4.15573675616320       -0.75666227083058
C            2.15802392537511        0.36940711034558       -2.15351394983961
C           -3.57391890172974       -1.57885393210333        1.44112207814205
N            2.81983836853274       -0.32223724055632       -2.79207688444683
N           -3.73257784637145       -2.56762417749560        2.00379918273557
C            3.35787685864418        2.76222693931354       -1.09600001823164
H            3.95515825763037        2.10095743139082       -1.70488734956370
C           -5.89426295879524        0.02445235471640        0.82871850439013
H           -6.03254299739091       -0.95990355624846        1.24808847231493
