59
 energy: -108.582991700300 gnorm: 0.000805363054 xtb: 6.5.1 (b24c23e)
Si           0.24427325657717       -1.51337329333356        0.64006826710882
O           -0.92472050063018       -1.67704702076403       -0.44709638917537
C           -2.10831817186082       -2.44466451651834       -0.45633565176721
C           -3.26492666949491       -1.52659390331079       -0.76226890028480
H           -2.25029083169008       -2.90943241986893        0.52720692054405
C           -3.07395287289454       -0.41904733860073       -1.57823575845029
C           -4.52104246586094       -1.76823323622007       -0.22363280343276
C           -4.12278904188138        0.44331431572142       -1.84320331223566
H           -2.09260168732037       -0.23436845053109       -1.98974063472737
C           -5.57111080755988       -0.90990405754574       -0.49643261201948
H           -4.66971142119328       -2.62135962100456        0.42090024902524
C           -5.37373395588753        0.19849562252503       -1.30308314599229
H           -3.96393093639731        1.30833706794672       -2.47169635477940
H           -6.54448552823617       -1.10148361429100       -0.07036274509241
H           -6.19230953994296        0.87304795399507       -1.50803199210440
C           -1.97260797354797       -3.54453994909625       -1.52469783297644
C           -0.86863627625560       -4.42203654726554       -1.19807952925090
H           -1.78706710909483       -3.07238146664026       -2.49292457613964
H           -2.90542104173847       -4.11148340227304       -1.57369415939334
C            0.06989717819389       -5.09518117271935       -0.88638006309610
H            0.88499466802444       -5.70556672824651       -0.63610954866704
Cl          -0.52578952233529       -2.53638964465476        2.29280623009801
Cl           2.10882461933707       -2.36317832836375        0.74735550701691
O            0.99536775113244       -0.43041630460766       -0.90471857298276
O            0.18226534235245        0.00188492820658        1.45888821303205
C            1.90145967985117        1.49059448910594       -0.03442017548203
C            0.50727249750945        1.91832148762021        0.15912111756830
C           -1.65983217713663        1.34324866060400        0.94442596660206
C            3.28183246641290       -0.16029129028302       -1.00299025753277
C            4.44750614149380        0.57746639962087       -0.67149934550945
C            2.98257551989523        2.26497538976539        0.28522744170519
C            4.29690184965229        1.81789911735527        0.00404828468550
C            0.03457188078664        3.07217037097089       -0.40031491105989
C           -1.34811248521709        3.40550244070318       -0.32889633919428
C           -2.21475451110933        2.50479956132030        0.34530481629728
H            2.82926921076836        3.21492692826370        0.77185239581215
H            0.71036086739366        3.71220146080258       -0.94417952308443
N            2.06196590330776        0.28968311335504       -0.65107892169568
N           -0.32220647672742        1.10160792782705        0.84767812069439
C            5.44044242693278        2.55208703800419        0.34853895103124
C            6.69149830509433        2.07565099292514        0.03374242556571
H            7.56847376245453        2.64369746100861        0.30386108646250
C            6.83745277668443        0.85727760733023       -0.63546282533951
H            7.82589124126663        0.49704401384833       -0.87519607980399
H            5.32170539170792        3.49239824928902        0.86536433633572
C           -1.88015465169402        4.55286653424472       -0.92123406456915
C           -3.23511228824080        4.80686493150175       -0.85549145673495
H           -3.63904879066295        5.69439964588585       -1.31773872607769
C           -4.08552032199379        3.91991495665221       -0.19715656841060
H           -1.21782338044992        5.23470178479664       -1.43331579406813
H           -5.14376407158958        4.12683894191121       -0.15496141439515
C           -2.46135650595036        0.44662550609323        1.65247424167537
C            3.35874871663640       -1.34039620910004       -1.76419903464050
N           -3.16493187408562       -0.25396435600581        2.23504013818447
N            3.46897452685717       -2.25350428980779       -2.45115947665109
C           -3.58995735420687        2.78225257206844        0.39941627469356
H           -4.24432316843952        2.09109057840123        0.90721248007736
C            5.73601527152272        0.11465393671888       -0.98764696762368
H            5.84159715947588       -0.82921382532656       -1.49943599976930
