59
 energy: -108.581973420054 gnorm: 0.000669087301 xtb: 6.5.1 (b24c23e)
Si           0.66109636282425       -1.07612965642195        0.65862012425256
O            2.02821578272083       -1.44424835570413       -0.09555591678034
C            3.36359726100137       -1.58109424658842        0.34945374564889
C            4.30537647310889       -1.02465486401331       -0.68623511737980
H            3.48042527930119       -1.03194965920249        1.29118259013674
C            3.98528843170843       -1.08543506298882       -2.03468816726134
C            5.51958710729471       -0.47635927480457       -0.29630414434260
C            4.86672880667051       -0.59624828219764       -2.98259776788098
H            3.03557146768615       -1.50356158388285       -2.33235656501354
C            6.40248068211460        0.00526335823710       -1.24537487169869
H            5.76610457859533       -0.41806710833037        0.75348561770047
C            6.07789367641492       -0.05314821456268       -2.59038361802827
H            4.60740515841088       -0.64024487429581       -4.03062127867673
H            7.34403516024970        0.43399619838165       -0.93485922574187
H            6.76586641618084        0.32843517220793       -3.33087758289925
C            3.65875357672013       -3.07448459048710        0.59132834309902
C            2.80198640959377       -3.60508056070190        1.62960665563077
H            4.70796195042659       -3.18615794198169        0.87484759318752
H            3.48240886305437       -3.62059710064032       -0.33934496790391
C            2.05194459665558       -3.98826122155617        2.47980434110154
H            1.40734342307903       -4.34876542650082        3.22468155114254
Cl           1.00842993449599       -0.50652201902867        2.53645995736046
Cl          -0.52716518517904       -2.63778356873054        0.24953809852688
O            0.04198648905947        0.10289077483726       -0.35549031891718
O           -1.71267114482238       -0.24492456056947        1.63457507902017
C           -1.63852894809757        1.71018583326121       -0.12294194578595
C           -2.60778456299594        0.61230984297878       -0.27378361848708
C           -3.43998698291540       -1.37438846124924        0.67224095807756
C            0.65301797694258        2.32450676806575        0.18401291967418
C            0.28532927744242        3.69038662250437        0.33126943682110
C           -2.03540106462908        3.00877159044944       -0.00465952684400
C           -1.08333383729615        4.05083736123369        0.21776486520756
C           -3.52449062195787        0.55610100087744       -1.28550816270847
C           -4.44795515804701       -0.50834954716603       -1.36986509230930
C           -4.40007367990346       -1.50465806888497       -0.36085519099919
H           -3.08579612877684        3.24754406999100       -0.04055703025812
H           -3.52626763166771        1.32999409647791       -2.03745209628072
N           -0.32208378424715        1.38957092974441       -0.07098549062679
N           -2.57106744338254       -0.34674402712237        0.70689364090659
C           -1.45186623799658        5.38856874717544        0.34659627265168
C           -0.49633180349624        6.35940067585739        0.58320207703334
H           -0.79127851597985        7.39289813470217        0.68033381453640
C            0.84435218595502        6.00585770336157        0.70034153369733
H            1.58458505441667        6.76833779659818        0.88925622860583
H           -2.49433747910656        5.65663839277160        0.26017726618652
C           -5.39654571059243       -0.62001662228126       -2.40100012393995
C           -6.26380199968377       -1.68179007179919       -2.42935498206765
H           -6.99020687245008       -1.76644778685789       -3.22319701709964
C           -6.21481434037972       -2.66468291583005       -1.43247376645340
H           -5.42677774423236        0.14107495481266       -3.16622605503440
H           -6.90416685896179       -3.49403451159066       -1.47184871666976
C           -3.37402270367549       -2.30658654916877        1.72713059181778
C            1.97542911037716        1.91045399520446        0.27392185654977
N           -3.37317460167246       -3.06248858884092        2.58971284804096
N            3.08512437419869        1.60113357518271        0.35371113974121
C           -5.30176082489582       -2.58313388275616       -0.41216151893509
H           -5.25782549194827       -3.33826533065384        0.35751931671762
C            1.23802863550871        4.69029450340367        0.57810626849748
H            2.27718985677861        4.41327043906749        0.66842514544972
