59
 energy: -108.583090733061 gnorm: 0.000873468017 xtb: 6.5.1 (b24c23e)
Si           0.80592280450851       -0.74853973768162        0.82953579636575
O            2.23219664231629       -0.85522014208413        0.09782776321899
C            3.29391274693574       -1.78128760905845        0.19099037159088
C            4.40889848724808       -1.35052762079033       -0.72906096903464
H            2.91368813280602       -2.76772036811553       -0.11127921812572
C            4.71007465810315       -0.00429304322661       -0.88298353102709
C            5.17598276319539       -2.30428346140040       -1.38550932450815
C            5.76544217858337        0.38082421452604       -1.69117450140212
H            4.10871055314042        0.73666811007351       -0.37876585231486
C            6.23516174391492       -1.91571963752572       -2.18638242993167
H            4.94286876887129       -3.35338859071485       -1.26720983118632
C            6.53185258197553       -0.57181946707186       -2.34058642926618
H            5.99131501566096        1.43022180354200       -1.80844810258442
H            6.82832071871455       -2.66344389540858       -2.69245240686350
H            7.35848365002287       -0.26975019930633       -2.96700088451266
C            3.82746428330477       -1.87440909015256        1.63414648551051
C            2.92788061134607       -2.62814196803098        2.47982200505635
H            3.94624159535950       -0.85998579119211        2.02251443382816
H            4.80505995889367       -2.36311154740765        1.61563723865464
C            2.15378201340667       -3.26876161771211        3.12977092014713
H            1.48072744069398       -3.81452883546659        3.72097282799907
Cl           0.97830713246221        0.04857546658795        2.64978232920816
Cl          -0.10071482759572       -2.53429262854257        0.60690635021138
O            0.07315272033085        0.25104687662242       -0.28629270605416
O           -1.70683077754311       -0.26340675762254        1.67332138267552
C           -1.86470453825001        1.55952461833823       -0.20340145208270
C           -2.63880800822634        0.31276920461217       -0.31923852604260
C           -3.20258705156173       -1.70945146074359        0.74319589838011
C            0.27208079003893        2.56611843972854        0.15878278148372
C           -0.32646878278907        3.85508822883225        0.22348714800568
C           -2.47857328771903        2.77620976447059       -0.17449898984281
C           -1.72815867086601        3.97382254786622        0.03291870937721
C           -3.49411929603186        0.05060047833520       -1.35203382332498
C           -4.24897113045383       -1.14226741248706       -1.38334591555643
C           -4.09523492389714       -2.04924064944205       -0.30311244126861
H           -3.55100612775360        2.83040741729514       -0.26760432975449
H           -3.58021173891448        0.76282550720536       -2.15796042840481
N           -0.51748086543352        1.46679504303125       -0.07960386026980
N           -2.49986138026724       -0.56097500888854        0.72914036379157
C           -2.32183559821419        5.23382224014541        0.07677734599213
C           -1.55600255243205        6.36170466256359        0.30620644536948
H           -2.02432225854790        7.33337651066214        0.33810984950907
C           -0.18309000553363        6.24554737534648        0.50080225126199
H            0.40818509277800        7.12951538551029        0.68513038487552
H           -3.38851889109474        5.31697844388076       -0.06926304565425
C           -5.13614149375951       -1.46031436577692       -2.42594187652618
C           -5.84486688523606       -2.63402299671219       -2.39608204198823
H           -6.52628711905537       -2.87536965365142       -3.19754728241493
C           -5.69133848318371       -3.52840313554288       -1.32917903244216
H           -5.24740792578826       -0.76605010390230       -3.24532375673031
H           -6.25643450053326       -4.44778567729297       -1.32240103001463
C           -3.03452989906462       -2.55309386128071        1.85931595858907
C            1.64304294494647        2.40278274517113        0.29976392269468
N           -2.94682383939536       -3.25084421711149        2.76543887099676
N            2.78944391315844        2.33068111425608        0.41729814584684
C           -4.83246977667409       -3.24722543001074       -0.29722799368592
H           -4.70881355831787       -3.93340270057926        0.52652850936677
C            0.43103572567501        5.01199399258973        0.46147010031086
H            1.49552852574267        4.92018149073706        0.61230842249437
