59
 energy: -108.582930843337 gnorm: 0.000391316416 xtb: 6.5.1 (b24c23e)
Si          -0.88015878247089       -0.59476923115304        0.66452198721811
O           -1.76103234878462        0.06762972388517       -0.50734411160882
C           -3.14728097757779        0.34245343063843       -0.54067242771464
C           -3.96487424521588       -0.91982821527453       -0.47224180425583
H           -3.39513214147008        0.99366898931394        0.30773142282766
C           -3.50182494474723       -2.08257057519954       -1.07263546811769
C           -5.18906623102720       -0.92785079250456        0.18168825738436
C           -4.24908571921785       -3.24492603610768       -1.00840545597968
H           -2.54521683724760       -2.07861546566348       -1.57427280455106
C           -5.93999616472759       -2.08818958371242        0.23522962614919
H           -5.54417778946492       -0.02641204753175        0.65907596795950
C           -5.47057410235755       -3.24863214204006       -0.35718739891363
H           -3.87342913733603       -4.14743484255268       -1.46688179149202
H           -6.88980653688604       -2.08908592273748        0.74940179892283
H           -6.05416419504128       -4.15610538443967       -0.30624006387313
C           -3.41535714507088        1.08752059883971       -1.86029104545686
C           -2.63193087335742        2.30112294345038       -1.94043703173139
H           -4.47951680740964        1.32652697776446       -1.92280870315112
H           -3.14584546318325        0.43026325365301       -2.69095209092344
C           -1.95801128318369        3.28874865924467       -1.98782663390888
H           -1.38531845457498        4.16571713610074       -2.04794404091129
Cl          -0.34400281887178       -2.56079964231283        1.00661675563349
Cl          -2.20758047198149       -0.50927183477447        2.29128860225762
O            0.43941651374518       -0.60605505816704       -0.80543124050091
O            0.20199386178524        0.49890776742850        1.43847654565226
C            2.50145540902335       -0.05221533496688        0.06163818174273
C            1.98244187034402        1.31911396880893        0.16190131698850
C            0.14311569949432        2.71391680576787        0.72173990955739
C            2.07877612689186       -2.22125469852951       -0.77203773002911
C            3.37587043342985       -2.65465754111428       -0.39684762784287
C            3.77698194691026       -0.39915243551069        0.41786989797649
C            4.24686630943743       -1.72187396376834        0.22730060459592
C            2.65392569617824        2.37381663221255       -0.39229057236304
C            2.08947221572070        3.68024549928411       -0.39398124182708
C            0.79025589349235        3.84333044304627        0.15656660485507
H            4.42093473871627        0.34014411570184        0.86653049264742
H            3.60490879871521        2.20374591668488       -0.87041683702282
N            1.67058328236624       -0.96394491921272       -0.50769347333599
N            0.78505647451099        1.51399377269423        0.76073349109595
C            5.52916865451552       -2.13649150689212        0.61243163871864
C            5.93619491456104       -3.43122525937456        0.38816370451284
H            6.92380648266157       -3.74526045901094        0.68931277654819
C            5.07852955337527       -4.34660588921082       -0.22776802810183
H            5.41218767627830       -5.35900740466237       -0.39490664613568
H            6.18771782244673       -1.42556203573481        1.08816804077401
C            2.74204357564657        4.78565403925864       -0.94577204816162
C            2.13053047780691        6.02249013339606       -0.95810642619525
H            2.64066105257599        6.87123285256234       -1.38684305788155
C            0.85274752910765        6.18095053680086       -0.42260427387965
H            3.72913593439084        4.65727544022998       -1.36374455300205
H            0.38252275804116        7.15231393468746       -0.44134213476073
C           -1.15018704984691        2.79847942198073        1.24110288236179
C            1.20130713141767       -3.05723993847101       -1.48509959518659
N           -2.22062000206967        2.91078840019733        1.64916876323331
N            0.54730555155707       -3.74511311183122       -2.13147967865563
C            0.18480395671435        5.11056349269335        0.12911386865954
H           -0.80396949890234        5.22701672423487        0.54609186539648
C            3.81583630697637       -3.97019952302435       -0.61945331328842
H            3.14630837319077       -4.67279981507583       -1.09075065290778
