59
 energy: -108.588836219743 gnorm: 0.000586101232 xtb: 6.5.1 (b24c23e)
Si          -0.22240822503786        1.76765680511794        1.21853942972581
O            0.88660393677087        2.26341178453558        0.19503766594560
C            1.09314239126518        2.27166579535192       -1.21585837192844
C            2.17002795267062        1.27064013227066       -1.54382141975144
H            0.16080953140559        1.98431667954480       -1.70650145195080
C            3.42865546703652        1.37233009834793       -0.96268129255012
C            1.90091753228354        0.21376370483110       -2.40291625944229
C            4.40903884196195        0.44204462537403       -1.25791337663251
H            3.63479622514461        2.17087058134790       -0.26640118326131
C            2.88117212704107       -0.71976850439230       -2.69148510634057
H            0.91529437780145        0.12511597501084       -2.83414854629203
C            4.13919842022238       -0.60258220101691       -2.12602525963548
H            5.38617779106820        0.53212828305019       -0.80746037295914
H            2.66330959347590       -1.54067533455842       -3.35911523220855
H            4.90473361490056       -1.32927846866026       -2.35456168309212
C            1.46763377260419        3.70226864401234       -1.62457383231626
C            0.34201997327169        4.58626260370353       -1.40356728898846
H            1.74545097450155        3.70704401850465       -2.68145132705594
H            2.31920689024685        4.03930893892764       -1.02926150759450
C           -0.62010219324047        5.26295876173269       -1.18602614411449
H           -1.45224185737275        5.87672109230083       -1.01103912747216
Cl           0.27789989091023        2.64684596690937        2.94119669438916
Cl          -2.15871357737366        2.15734194981746        0.87554968128439
O           -0.93744710280525        0.28716454749613       -1.06861966383755
O           -0.14075036686312        0.12961475778029        1.58073958572773
C           -1.46996197734531       -1.62893191574613        0.03015918677140
C           -0.01833803775355       -1.78079451036118        0.23451766821190
C            1.97839066186088       -0.84990231322682        1.15369528734396
C           -3.13962141040340       -0.29631811526503       -0.95410668508563
C           -4.15212408221453       -1.18602577622123       -0.51753281541831
C           -2.39372625490022       -2.53882617351615        0.45930001286489
C           -3.76997166876358       -2.34413743520616        0.20792290345448
C            0.67502835868867       -2.82048235802796       -0.30706500150815
C            2.08896620099879       -2.92844822641649       -0.13656197048575
C            2.74449124032939       -1.92099080902709        0.61688108772945
H           -2.06342385262190       -3.40651711112278        1.00897167269532
H            0.15002635157447       -3.56032750329023       -0.88910835102975
N           -1.84062010925368       -0.51647259761551       -0.67639690437150
N            0.61972426399411       -0.82857126909332        0.95719790430873
C           -4.76147914756213       -3.24033551413477        0.64160866782821
C           -6.08267776715143       -2.99493265994365        0.36674802364176
H           -6.84210674607006       -3.68469160145338        0.70200197885899
C           -6.45789515467242       -1.85029507287089       -0.34751774831770
H           -7.50216288384334       -1.67164781705313       -0.55271623594376
H           -4.46400671389442       -4.11924118145263        1.19364976375251
C            2.83392373805180       -3.97335558008665       -0.67839346856125
C            4.20016814350204       -4.03807720620980       -0.47641779504518
H            4.76897493660215       -4.85177175431329       -0.89968324248937
C            4.84152316187743       -3.05920337246657        0.27557572953308
H            2.32976165950828       -4.73427500933682       -1.25544786720094
H            5.90726186403430       -3.11947668634297        0.43601298370333
C            2.58623235395783        0.16028696545607        1.88810023131796
C           -3.44363955481137        0.83934450093298       -1.72989667362619
N            3.14336541138605        0.96615037091928        2.49794490552418
N           -3.70822954483690        1.73515444517994       -2.39615031208475
C            4.12998850210582       -2.01041491933736        0.81751355506440
H            4.62497286369002       -1.25021266107230        1.40134612837942
C           -5.51338841355834       -0.95702396071525       -0.78604953594581
H           -5.79636637439201       -0.07188840890508       -1.33502669351822
