59
 energy: -108.587058400205 gnorm: 0.000435009137 xtb: 6.5.1 (b24c23e)
Si           0.72367571460560       -1.23159836115824       -0.26371952430394
O            1.78095722931284       -0.07326059173753        0.16317470082688
C            2.98928286762165       -0.22774657159002        0.88757527290398
C            3.96640728188111       -1.10190519944762        0.14736095634522
H            2.75117753236637       -0.68274119700307        1.85616406994401
C            4.13837928889317       -0.94878945424046       -1.22166976912225
C            4.69615367354469       -2.06840128829858        0.82501461710956
C            5.02398449869853       -1.76122330174277       -1.90645352920518
H            3.56858093277388       -0.20079630277916       -1.75274690112750
C            5.58744223190877       -2.87379650775282        0.13939298753481
H            4.55337123398379       -2.19829261452489        1.88761227228449
C            5.75074180364442       -2.72375615637410       -1.22735330013495
H            5.14272445896421       -1.64154293961507       -2.97288308635857
H            6.14772318474958       -3.62754585807854        0.67261921632472
H            6.43984414402330       -3.36012770572646       -1.76284879148210
C            3.58397440572558        1.17358805325042        1.10970485228076
C            2.67509813543784        2.01579457335821        1.85529241580576
H            3.79468130079052        1.62757678338048        0.13844472892726
H            4.52224366429200        1.06742285400854        1.65988799506804
C            1.89081229885241        2.68677873981731        2.46116236540942
H            1.22667460133713        3.28934513114686        3.00530219504173
Cl           0.76203983305299       -2.27586878352625       -2.00137955807572
Cl           1.30697162595109       -2.75399872044474        1.05182306055467
O           -0.75449629577888       -1.08374294157604        0.61212095012038
O           -0.04048408680800        0.19145160463522       -1.42430158486175
C           -2.37318769291815        0.41334790319425       -0.20148761360072
C           -1.39710950085861        1.50773755483936       -0.11637680387408
C            0.65930891418246        2.33166306399690       -0.92273424785458
C           -2.78850514720735       -1.92337162097329       -0.12636529746530
C           -4.12211445442515       -1.73307159768332       -0.57231284825979
C           -3.65616765155474        0.65541657692717       -0.61060278631072
C           -4.58058977982560       -0.40793637519699       -0.80021243612125
C           -1.64747827510137        2.68004992843694        0.54751820697803
C           -0.70940385010352        3.74006694439143        0.52082859430193
C            0.47177904418694        3.56492146333350       -0.24771484594842
H           -3.95747280120391        1.66692374612080       -0.82996792158083
H           -2.56198563539790        2.78512149932707        1.10910506161982
N           -1.97206817522980       -0.85099332390813        0.07250110039321
N           -0.25252920774079        1.34436050007824       -0.82441321288486
C           -5.89618233209985       -0.20107492840668       -1.22334023944250
C           -6.74081335176236       -1.27337338978674       -1.42027220034021
H           -7.75543377672589       -1.10658484040007       -1.74748844682128
C           -6.28850669140747       -2.57484936816359       -1.20255310871790
H           -6.95738105343772       -3.40599261645949       -1.36421103141955
H           -6.23937212066286        0.80804365316546       -1.39506774531261
C           -0.90275234973911        4.94497907979841        1.21112710907036
C            0.04080502154541        5.94362225983710        1.14159843936142
H           -0.11118782017115        6.86731818268396        1.67888882881288
C            1.19858874981400        5.77154902409777        0.37865907588327
H           -1.79999772307312        5.07322967680044        1.79811794626276
H            1.92903503109481        6.56429444763814        0.33371961432942
C            1.78874022405037        2.09718694673343       -1.71914013038793
C           -2.29564174791287       -3.20255257418135        0.15079753277321
N            2.71923928675144        1.95125107636027       -2.37777674211821
N           -1.95037999568404       -4.27678215713036        0.37387842068968
C            1.41583289809967        4.60252958843574       -0.31080272934189
H            2.31022426076572        4.46423776399228       -0.89799429007288
C           -4.99848631994422       -2.81023732203398       -0.78444333104110
H           -4.64480653613418       -3.81525100984244       -0.61454453335902
