59
 energy: -108.587051504411 gnorm: 0.000929657894 xtb: 6.5.1 (b24c23e)
Si           0.51545191931427       -1.25462510142107        0.09004527658440
O            1.71042500817465       -0.18152202334931        0.33641342600174
C            2.92890987769951       -0.38146736115493        1.03308022533762
C            3.77741431248787       -1.42623839594724        0.35845667060723
H            2.69024394886206       -0.70628817550927        2.05253466566261
C            3.93644142348139       -1.40826412178528       -1.02068883313624
C            4.39033637557246       -2.42250613707307        1.10483111618128
C            4.69480611060633       -2.38125746058315       -1.64606714066348
H            3.45336378410546       -0.63994700257237       -1.60586699673067
C            5.15334435483585       -3.39072716816080        0.47761790021515
H            4.25471243082489       -2.44777340385590        2.17580823575931
C            5.30507637787337       -3.37326421047357       -0.89845012210555
H            4.80475058225824       -2.36419233948194       -2.71996629168798
H            5.62085813646749       -4.16709766785350        1.06459578402073
H            5.89300556413278       -4.13575586856026       -1.38767320996188
C            3.66263482577129        0.96954308714397        1.08283352392393
C            2.86198720592316        1.96889030191558        1.75507949026622
H            3.87856289119574        1.29545921643454        0.06257785863513
H            4.60634900088759        0.83233238786857        1.61636256758334
C            2.15987909532420        2.76853172489355        2.30261904568248
H            1.56891733153395        3.48263810396935        2.79380736092650
Cl           0.35700889715458       -2.48203740281792       -1.51681753450505
Cl           1.00504638574106       -2.67882870918475        1.54822326750265
O           -0.89098912487007       -0.85516870132346        1.00880093302887
O           -0.16002915949650        0.10002033253121       -1.18596899622629
C           -2.39366451252860        0.70613891848714        0.09833187082892
C           -1.31026098305749        1.69357054321182        0.00800768153954
C            0.77487470385873        2.19860088043301       -0.96934998856654
C           -3.03786666264384       -1.54906260667186        0.46858397619848
C           -4.37127310583654       -1.26702990674017        0.07394082802448
C           -3.66866750912384        1.03702498825941       -0.27260860696156
C           -4.70656862158715        0.06581239523193       -0.28552636653866
C           -1.41107535119529        2.95657934719958        0.53042793031554
C           -0.37798073484472        3.90459937046324        0.33509688901842
C            0.74188841789923        3.51708621921555       -0.44732108698272
H           -3.87915786986283        2.04358345346696       -0.59605061473221
H           -2.28119201653881        3.22150975093853        1.10956608803185
N           -2.10671036888734       -0.55514690920248        0.50025320806306
N           -0.22477682034703        1.33031007186897       -0.71835707676220
C           -6.01941370512671        0.36538162421146       -0.65895801610276
C           -6.97998836329033       -0.62391075340728       -0.67992854641586
H           -7.99193882480400       -0.38574277724210       -0.96892465911054
C           -6.64906541509589       -1.93390583145197       -0.33303079043049
H           -7.40851906401821       -2.70004131057867       -0.35713550042963
H           -6.26874856653772        1.37992203232741       -0.93118341086530
C           -0.42122309090196        5.19884290594811        0.87222065050738
C            0.60887195179322        6.08088392351929        0.64094772133093
H            0.57167021967216        7.07493438162813        1.05970168244864
C            1.70667583041264        5.69914536252081       -0.13430442180951
H           -1.27256200270926        5.48894484750055        1.46979859413012
H            2.50646813973640        6.40235345423666       -0.30715041008601
C            1.83723178127639        1.75645179900741       -1.76946802566808
C           -2.65895831325861       -2.83586995759087        0.86482670970379
N            2.71638242176948        1.44002371708532       -2.43879930690215
N           -2.40836928852685       -3.91042623287322        1.18870076002175
C            1.77748802798987        4.43756959582310       -0.67539136517131
H            2.62510203223378        4.13801592601668       -1.27178697220629
C           -5.36473749949566       -2.25962742958826        0.03931404601750
H           -5.10453639228857       -3.27140369689550        0.30874430665989
