59
 energy: -108.586597125174 gnorm: 0.000389914403 xtb: 6.5.1 (b24c23e)
Si           0.23919293490571       -1.90099512686302       -0.01565211522996
O           -1.30830168690464       -1.44308110230727       -0.02947842122353
C           -2.41590795475820       -1.83628922401938       -0.82465548187783
C           -2.97836621860539       -0.54672274115909       -1.38016854525044
H           -2.04835784768074       -2.45928346869677       -1.65161899863197
C           -2.13904960627234        0.20550176067196       -2.19829865608979
C           -4.23340634213812       -0.04669177053539       -1.06678145723518
C           -2.54416601051686        1.43042256575807       -2.69194431397582
H           -1.16043580504002       -0.18368289622226       -2.44127794553075
C           -4.64383720299690        1.17607239026226       -1.57389626810585
H           -4.90176209603358       -0.60333599114399       -0.42929787472222
C           -3.80328376706590        1.91828661288425       -2.38307174064615
H           -1.88116784380008        2.00234486796666       -3.32477679341894
H           -5.62722977508428        1.55075907449060       -1.33118705061204
H           -4.12616458061023        2.87238339814705       -2.77239646289555
C           -3.37535661365537       -2.66929642030254        0.03098321232635
C           -2.71513898973310       -3.88902440877929        0.45065653935205
H           -4.26191954341249       -2.91446525704179       -0.55895817963043
H           -3.66247720531573       -2.10414665796229        0.92142891683439
C           -2.11840334960566       -4.86896915610681        0.78823191461806
H           -1.61132444093266       -5.73573712082827        1.08975995569638
Cl           1.04569880702131       -2.95070806930406        1.49044904021399
Cl           0.31264668154795       -3.22987354376128       -1.60204463293425
O            1.21872519411960       -0.79127104365827       -0.87286676942727
O            0.28187355430804       -0.33583306745922        1.44712361174677
C            1.86575183479864        1.26010759672325        0.07623910750413
C            0.44949546780654        1.60855625288916        0.25180548632359
C           -1.56925520934443        1.02419407024077        1.31050536930673
C            3.47533766117715       -0.41755624987145       -0.43030337249619
C            4.53804946877987        0.45491838897026       -0.07854822389883
C            2.85285272899981        2.14424201957410        0.41162104152199
C            4.22627120442634        1.77882614914681        0.33165426680442
C           -0.09987926766894        2.76325101681786       -0.24008169386480
C           -1.44682385094444        3.09670845459682        0.03133032013776
C           -2.19869992395019        2.20547533578580        0.83994251219115
H            2.58335580332017        3.12175126318794        0.77747147994999
H            0.50404895893511        3.41748615541150       -0.84844615494582
N            2.18389302234462        0.02322500971090       -0.37627317420360
N           -0.28266253848504        0.75452267268084        1.01583023046165
C            5.26169149334963        2.65633880246862        0.65966539775605
C            6.57603469110961        2.24210724104757        0.58706498881467
H            7.37098127378315        2.92642355813645        0.84024833023229
C            6.88168696964953        0.94069664599978        0.19133178280063
H            7.91272886202401        0.62610025656582        0.14207009902915
H            5.01886727507431        3.66142686746796        0.97041912192328
C           -2.05601755476262        4.26545640105921       -0.44844695757766
C           -3.36272660350630        4.54700494224845       -0.12961195187725
H           -3.82593257371268        5.44955833288124       -0.49802686833711
C           -4.09933787476578        3.67196925131313        0.67300962385191
H           -1.48070928542442        4.93811724506612       -1.06645289342061
H           -5.12335925981791        3.90833473825998        0.91769142631405
C           -2.27926451932882        0.09907617882538        2.09162637385099
C            3.71988796332049       -1.71897907798808       -0.87343564355033
N           -2.91605187913087       -0.61323695666779        2.72918196640939
N            3.97185631441821       -2.77863300419860       -1.24572594659232
C           -3.53313694263394        2.51489463835494        1.15070840672636
H           -4.09897975497786        1.83509914173287        1.76871053728850
C            5.88235157019930        0.05254754893301       -0.13750612262035
H            6.11490718318863       -0.95515949139538       -0.44503934916881
