65
 energy: -114.841021638274 gnorm: 0.000625414394 xtb: 6.5.1 (b24c23e)
Si           0.47364627834142       -1.05558603652539        1.26411667955543
O            2.63053927900284       -1.42387407144930        0.68844586759677
C            3.00903268634272       -1.45190393490247       -0.46635283010686
C            4.40733462715574       -1.48812329216625       -0.85741388784700
H            2.27667227003001       -1.46821412327476       -1.28661638731237
C            5.40712967591315       -1.44649324678989        0.11866007726500
C            4.75926238699604       -1.56128038441098       -2.20662558579725
C            6.73578379593249       -1.48159285463259       -0.25269858679019
H            5.11347452849686       -1.38336649827337        1.15543705140388
C            6.09068064328897       -1.59647273384505       -2.56965709592712
H            3.98298423938965       -1.58472518202101       -2.95657881790338
C            7.07788208075798       -1.55784848632708       -1.59511817545498
H            7.50930213727718       -1.44840946386661        0.49980731450179
H            6.36637945511798       -1.65188857855235       -3.61231929897039
H            8.11838389541310       -1.58500528376853       -1.88415946166776
C           -1.15401089197399       -2.49699720284534       -2.10896116923867
C           -0.52105652309748       -2.55857713550163       -0.97793202940280
H           -0.62843110548475       -2.35380171114883       -3.03920476881097
H           -2.22429237316549       -2.61372589355426       -2.17770423641626
C            0.10437833385451       -2.57771574444172        0.15422168385547
H            0.46045103552845       -3.52402982201247        0.53687355308569
Cl           1.42553723425340        0.67809880786771        2.05778713557268
Cl           0.77286520547555       -2.17762122607832        3.00442183721229
O            0.29899316664615       -0.07824222177178       -0.45256648199108
O           -1.13766909512255       -0.44988569714154        1.68249940289883
C           -1.27370024349995        1.55720402720994       -0.06933356114075
C           -2.25316631445620        0.44853365403820       -0.14541937209891
C           -2.92226647605092       -1.62771723672029        0.78770929207134
C            0.99169854793721        2.11546897967769       -0.45253992453703
C            0.72767758225840        3.48160767990709       -0.19103354728641
C           -1.60491948000990        2.85555863737711        0.23399897196251
C           -0.58702242185868        3.86140897657292        0.18543135974814
C           -3.21697331681164        0.38660451993398       -1.12273753767784
C           -4.12248810548131       -0.72730161187040       -1.14227000365271
C           -3.96277872198652       -1.74795348755977       -0.16847803168997
N            0.00229972313490        1.20414286102627       -0.36286117602343
N           -2.12450173106795       -0.53316847866501        0.77852328944753
C           -0.83213553618031        5.21143934521272        0.47383792759118
C            0.17756987398415        6.14372091357343        0.39000544402363
H           -0.02934912368423        7.17861364619010        0.61662836672774
C            1.46689789245073        5.76331366394321        0.01651592121579
H            2.24895192085046        6.50453688345244       -0.04246251726475
H           -1.82143407611376        5.52565689598759        0.76431291212874
C           -5.14897854847144       -0.85908904564273       -2.08416372412097
C           -5.98282207317645       -1.95878007893922       -2.07194719187086
H           -6.76838064954449       -2.04229871889001       -2.80740433425838
C           -5.81594075511954       -2.96154484028607       -1.11977454532589
H           -5.29544693243173       -0.09405271935341       -2.82912439278878
H           -6.47039051097078       -3.81946081390401       -1.12178917357325
C           -2.71474495701583       -2.61092055905206        1.76015191946119
C            2.25470391706692        1.63812653967017       -0.82108630406866
N           -2.60982222459015       -3.44752270359239        2.54277071762712
N            3.27183925974054        1.23642034742300       -1.17985141349654
C           -4.81984690330756       -2.86160621405843       -0.17637504605046
H           -4.67893645799869       -3.63119046764507        0.56648493946053
C            1.74301662124322        4.44898446735012       -0.27183912017149
H            2.73686260093789        4.13649919288247       -0.55377038556547
C           -2.99916825021600        3.21646468047228        0.63936721480956
H           -2.98410843992451        3.68757468107298        1.62109182412541
H           -3.43779419069661        3.92050009662098       -0.06727487464134
H           -3.63270495610042        2.33608846453048        0.69252944407162
C           -3.31701416161907        1.43681551332364       -2.18509033316402
H           -3.27748160723069        0.97068322782805       -3.16862031043843
H           -4.26130304190745        1.97507823240899       -2.10449980699708
H           -2.50436269845215        2.15307686592609       -2.11318470588115
