65
 energy: -114.839759885858 gnorm: 0.000392605042 xtb: 6.5.1 (b24c23e)
Si          -0.58195827237468       -2.10809425496454       -0.18724494604687
O            1.34490027441802       -1.16115131559930        0.73315866763692
C            2.48199774558295       -1.38883845103015        0.34252071417471
C            3.64330824324355       -0.63351078778411        0.77341376567219
H            2.66918894776472       -2.19459526864348       -0.38025348731649
C            3.52535586001976        0.33215467852032        1.78002294797990
C            4.87661772155401       -0.82720292885734        0.14535717491442
C            4.61952027186275        1.08567093830370        2.14806422071900
H            2.56743615371189        0.46001544074643        2.26171867715171
C            5.96456755390746       -0.06231824175763        0.51472400546642
H            4.96078408767301       -1.56671313695284       -0.63697313799444
C            5.83813665429382        0.89347421102826        1.51292515419853
H            4.52868528429827        1.82677082238611        2.92798630979091
H            6.91644106563616       -0.20784139074948        0.02643488113646
H            6.69305212269095        1.48750912381712        1.79947094804059
C            1.82258750528570       -5.20280217617184       -0.71587320203108
C            1.16567067529534       -4.15094207973411       -1.08706910065210
H            1.36758044030372       -6.17879003073878       -0.72817039663485
H            2.84611621038016       -5.15240218867175       -0.38189514833371
C            0.49022931037057       -3.09666901176907       -1.41378505729464
H            0.49918635975612       -2.75267146814839       -2.43767221471703
Cl          -2.48564462495420       -2.43505059630437       -1.04900262136990
Cl          -0.46052753658926       -3.41141321096448        1.43162556555322
O           -1.18800182786324       -0.87487510929226        0.99681466047158
O           -0.33059317356004       -0.58270962736003       -1.38453934666233
C           -1.78230507312050        1.12510269720870       -0.00180546697357
C           -0.32901030997139        1.36291717972815       -0.14772498324944
C            1.59637027700658        0.69670549859487       -1.35117417377815
C           -3.42125144420452       -0.35413371498577        0.84229594954184
C           -4.45896612872815        0.48724099932703        0.37572300846563
C           -2.73029070097186        1.98431277328021       -0.50635042040450
C           -4.11500885538264        1.67465512630741       -0.32247606162927
C            0.33144285981785        2.40708906598418        0.45315448477104
C            1.71200126827583        2.62974168483373        0.13999798792058
C            2.33167395048355        1.78768096244770       -0.81812002019097
N           -2.13658937528000       -0.01966279113306        0.63019715282987
N            0.31323485242968        0.48818802596309       -0.96256390997213
C           -5.15188248907486        2.49360890143857       -0.79425497262580
C           -6.46821037578722        2.15078268696202       -0.58726561751205
H           -7.25299325535446        2.79210030065122       -0.95860303162259
C           -6.79953830752007        0.97929536056294        0.09706755325524
H           -7.83652785032840        0.72209049956060        0.24726069882344
H           -4.91833337005594        3.40272665329575       -1.32400177953283
C            2.46886211059035        3.66256098842370        0.70834455235410
C            3.77978473196549        3.86421401332818        0.33557818385373
H            4.34723691631556        4.66469712376840        0.78523920464571
C            4.37565103013476        3.04844113276645       -0.62387614555378
H            2.02133209999898        4.31161532525873        1.44339253971516
H            5.39936175075087        3.22181735937081       -0.91713454457766
C            2.17393292727128       -0.19706827676364       -2.25631025478151
C           -3.70305313544588       -1.51775453182486        1.58035847150642
N            2.68517025837611       -0.89652719332780       -3.01552993064913
N           -3.99198380046171       -2.41606459025617        2.23374280317937
C            3.66329313018917        2.02243468440592       -1.19746552735547
H            4.11553625046476        1.38083375716737       -1.93794065661816
C           -5.81160404113202        0.15594348402373        0.57575131691676
H           -6.05083013820220       -0.75521577720171        1.10138940518457
C           -0.36756680899079        3.29913360533725        1.43107179544817
H            0.16563082856798        3.29281536079348        2.38086689709182
H           -0.39431666838036        4.32591539769428        1.06697345762390
H           -1.38576849305993        2.96682928484080        1.61011716774438
C           -2.33883232026906        3.21031669300160       -1.26999357716560
H           -2.82358720564289        3.20503116926587       -2.24499539139929
H           -2.65437302588974        4.10873715225467       -0.74023931075969
H           -1.26497312209074        3.25784498833250       -1.42229188837365
