65
 energy: -114.930801962300 gnorm: 0.000577073486 xtb: 6.5.1 (b24c23e)
Si           0.32332537018274       -1.46680494326045        1.52053761382506
O           -0.94376362780901       -1.95616728308649        0.69346635661427
C           -1.30948755753564       -2.04943849857893       -0.68733868563706
C           -2.54067659427499       -1.21589708461665       -0.92252443714653
H           -0.49026463380170       -1.67454701986044       -1.30952232719213
C           -3.62719846091203       -1.30976162943107       -0.06195522028619
C           -2.59622079938723       -0.35532497287041       -2.01054802316406
C           -4.76658530909018       -0.56316823788019       -0.30097451270323
H           -3.57093410529024       -1.95541995692774        0.80164292605515
C           -3.74115524450751        0.38434814688900       -2.24944697627130
H           -1.73553342672225       -0.26573543667481       -2.65565624979316
C           -4.82929526149911        0.27592416857587       -1.40073662466905
H           -5.60786182615451       -0.63960450530709        0.37131097677016
H           -3.78422804266628        1.04885818084037       -3.09963431768276
H           -5.72255232491479        0.85199562141321       -1.59119968240023
C           -1.56147207083352       -3.52819390994483       -1.01329521037696
C           -0.34365291424001       -4.29495180754149       -0.85738075669161
H           -1.91862210333206       -3.60204723805444       -2.04313385215102
H           -2.32946820462800       -3.91742532033358       -0.33998754872255
C            0.68966296537149       -4.87610612036045       -0.69777450076914
H            1.58164564499399       -5.41349011723022       -0.57451035769588
Cl           0.18640134978951       -2.21949276737076        3.34537324682221
Cl           2.10161144062063       -1.86719456950299        0.66975848266652
O            0.61157273000021        0.00228453370389       -2.00592458576581
O            0.30765826674623        0.19415440142310        1.71849166594797
C            1.46256237845040        1.35319069110057       -0.38516643115065
C            0.04400879795063        1.67747217823134       -0.09810595989695
C           -1.80362149620666        1.21020856827209        1.35944023935318
C            2.87394921475682        0.08335572385051       -1.77028801107749
C            4.01416656154252        0.54820737051538       -1.07157180568689
C            2.51250000844784        1.85249672482495        0.33898135617407
C            3.83807168446746        1.44265826475419        0.01374389861027
C           -0.70065854001097        2.52486134824917       -0.86490965700077
C           -2.08634873624562        2.75277962474753       -0.52557050238748
C           -2.62462228540904        2.09308919997245        0.60927761025878
N            1.63194288594233        0.46219089247653       -1.41893206950689
N           -0.48820593004194        1.06135134444349        0.99211605659684
C            4.97509966762602        1.87530316890658        0.71905049180798
C            6.22682233736896        1.44776632103585        0.35711766104034
H            7.09131753131032        1.78549044315064        0.90813355150002
C            6.39569194449614        0.57329704057036       -0.72218064913714
H            7.38772388324061        0.24773475917366       -0.99496248306486
H            4.85993543964258        2.54402579372123        1.55654746886200
C           -2.91706645039371        3.59229716723134       -1.26431574118720
C           -4.23346028477163        3.79950941876039       -0.89045195828441
H           -4.85781039002988        4.45771118385245       -1.47533188010938
C           -4.75050400307626        3.16766933241670        0.23292864946700
H           -2.53593083210645        4.08925102882891       -2.14162519211684
H           -5.77532436076929        3.33899691960463        0.52545197607351
C           -2.28005810769714        0.48947185021157        2.44384738947681
C            2.98922589833628       -0.82412446286235       -2.84067180769163
N           -2.68984915536726       -0.10483411956966        3.34568621642567
N            3.10325654892294       -1.55051157240904       -3.72145356361156
C           -3.96041009478034        2.31720447972248        0.97455756830956
H           -4.35322168987962        1.81407642585234        1.84461969082118
C            5.30904336716566        0.12746610112484       -1.42730038520561
H            5.42531068738212       -0.55308761061114       -2.25691407584019
C           -0.09155550733449        3.21391067222847       -2.04504286679609
H           -0.50420039807022        2.80393815127708       -2.96645022690887
H           -0.30448594854406        4.28109911388461       -2.01661355555727
H            0.98705536116567        3.08124354105287       -2.06551244643046
C            2.26216627665986        2.81177685053832        1.45839489049396
H            2.47686400599525        2.32970999995407        2.41175431456019
H            2.90438909824291        3.68532371318329        1.36328137193694
H            1.22758937150692        3.14363872371242        1.46684346730405
