65
 energy: -114.923140638103 gnorm: 0.000772935824 xtb: 6.5.1 (b24c23e)
Si           0.17429557301874       -1.66487037292528        0.54975160807133
O           -1.08146520412967       -1.71520504390229       -0.45116011520642
C           -2.27517754755298       -2.46713994140695       -0.43221743456985
C           -3.42264918224098       -1.52402407597447       -0.69340424252452
H           -2.39275693190327       -2.93990797288382        0.55040182562850
C           -3.24887490674393       -0.44734114906725       -1.55364467615067
C           -4.65072175119528       -1.71181245922578       -0.07499094918659
C           -4.28780897394655        0.43555619518417       -1.78695973469962
H           -2.28731192976505       -0.30212435562566       -2.02358313598147
C           -5.69112958555502       -0.83199671890087       -0.31522598121959
H           -4.78461323339766       -2.53965469601211        0.60482175606728
C           -5.51168533742558        0.24352111200396       -1.16895187925916
H           -4.14226524647558        1.27587492500861       -2.45096560016207
H           -6.64257803771315       -0.98153667585679        0.17316269597749
H           -6.32248486528292        0.93399712298979       -1.34975718657336
C           -2.19654842446987       -3.55643055758260       -1.51637818169921
C           -1.09443949909481       -4.45506178623362       -1.24589503292405
H           -2.04268830052850       -3.07632827242907       -2.48636257284967
H           -3.13928419858413       -4.10888677677555       -1.53472866966090
C           -0.15404316138221       -5.14781797337514       -0.98704804623450
H            0.66181465571138       -5.77296318423394       -0.77887547327923
Cl          -0.52841693439982       -2.75963537510629        2.19286088510115
Cl           2.01480920757496       -2.57476237084908        0.52053096965743
O            0.86818880757708       -0.54852801214277       -0.99946015088048
O            0.21559443291667       -0.18767376169389        1.44144986510843
C            1.82906317258812        1.30033147016183       -0.04236488952552
C            0.42371448819219        1.73136495370843        0.12993400448095
C           -1.67965640718315        1.12496936978071        1.06225446049567
C            3.15908525082926       -0.32615368598270       -1.12049319624215
C            4.34102796644522        0.33690554214410       -0.70489098224109
C            2.92315664019179        1.99199838000740        0.41512287128294
C            4.22954973584474        1.49928926181319        0.10302869081751
C           -0.10565063542145        2.82650874798214       -0.50448450495518
C           -1.50405393997859        3.12246759766192       -0.33912043763362
C           -2.29351062384199        2.24989468171534        0.45441657357451
N            1.95718541208945        0.14010107756575       -0.74052153504505
N           -0.34702421963051        0.92069473245964        0.89492742746297
C            5.40697417045158        2.12543459461702        0.53820255295407
C            6.63995596352349        1.62428216106918        0.18852724483844
H            7.53580989291745        2.11670584172153        0.53479930917703
C            6.74305976435876        0.48395102743836       -0.61006037149162
H            7.71658682366771        0.10150759007053       -0.87470596273763
H            5.34681633881761        3.00828477530239        1.15373042936625
C           -2.12415821254363        4.22325362665518       -0.93718135652202
C           -3.47451683061421        4.45463210890760       -0.76456184846170
H           -3.93414261046792        5.31040616161304       -1.23515633491378
C           -4.24486710442292        3.59236164026310        0.01077923741718
H           -1.54563104707503        4.90523116105905       -1.53885305984578
H           -5.29965685790930        3.78025260579390        0.13825931119296
C           -2.41838377743734        0.23228779034664        1.83926709745329
C            3.20057507544617       -1.44650526250888       -1.96875591953717
N           -3.07413992497783       -0.46442524731543        2.47977633639826
N            3.27858759214644       -2.30637352676793       -2.72590047211334
C           -3.66601767989826        2.50152126558169        0.61634189052884
H           -4.25203657163013        1.82423079047353        1.21749503950819
C            5.61113517086533       -0.15336089709830       -1.05526527779647
H            5.67482969098308       -1.04019975160320       -1.66640770583421
C            0.73191839774709        3.68902742703922       -1.39648083557159
H            0.26554885309767        3.76805861631917       -2.37732340253953
H            0.82066471241639        4.69374729307402       -0.98347281030554
H            1.72887381408651        3.27869408075548       -1.52442782835584
C            2.75623350281717        3.22330726400453        1.24802207092386
H            3.26277201480603        3.09279383454940        2.20323123539485
H            3.19261969500042        4.08840231411437        0.74989461589648
H            1.70665887868512        3.42443676252713        1.44100178994955
