65
 energy: -114.930255482870 gnorm: 0.000410640987 xtb: 6.5.1 (b24c23e)
Si           0.15364027034390       -1.79086067177207        1.26630034222738
O           -1.08005188600072       -2.15965554541074        0.33502811923952
C           -1.34762598482599       -2.19276384301542       -1.06930195690102
C           -2.46086207940916       -1.22251112318921       -1.36369222218632
H           -0.44621015943618       -1.89111092592434       -1.60928010957718
C           -3.66640576072892       -1.30541403762886       -0.67756144903187
C           -2.28034343133369       -0.22563004656106       -2.31282879375024
C           -4.68813150023122       -0.41687463912565       -0.95947613819142
H           -3.79634645810112       -2.05487710623232        0.08854899525767
C           -3.30506329912125        0.66175519064427       -2.59198403993198
H           -1.32959092615233       -0.14655925049193       -2.81720489599739
C           -4.51295621366833        0.56136975387382       -1.92381719249759
H           -5.62375092021276       -0.48910781072596       -0.42552939741572
H           -3.16107477795030        1.43422775098447       -3.33315898381637
H           -5.31300193424833        1.25171716054678       -2.14623938170242
C           -1.71682407116164       -3.63293056058114       -1.44848828183449
C           -0.58919293013156       -4.51289424181823       -1.22414367710060
H           -2.00388980098793       -3.65504756157901       -2.50251044634229
H           -2.56338738825879       -3.96161084199184       -0.84077859895780
C            0.37239893772868       -5.18784425922436       -0.99861789295258
H            1.20241245213906       -5.80479976296117       -0.82489921035737
Cl          -0.17380514086189       -2.64765499679952        3.02688991444578
Cl           1.97910755330572       -2.26037625624310        0.58052903497039
O            0.79808198813089       -0.17051724628062       -1.57664118273770
O            0.22138342770113       -0.14733240099387        1.58449202488475
C            1.54602702423014        1.38533044445197       -0.10710043458514
C            0.09936748062828        1.65516497462656        0.08917073194622
C           -1.87335303883333        0.92206744383059        1.23145424360460
C            3.05274104676043        0.05457438674888       -1.32471363454527
C            4.15057274877622        0.66742616226545       -0.67392415690417
C            2.54891843290633        2.02242909338401        0.57316194067578
C            3.90243139410756        1.66781506033075        0.29990891969424
C           -0.57551126676042        2.63914905801683       -0.57262341324168
C           -1.98713495880898        2.81442911116840       -0.32539087901934
C           -2.62473014955491        1.95000506145844        0.60083177759951
N            1.78742860961669        0.40058022388169       -1.03034791050866
N           -0.53129848069987        0.82804026871824        0.96258926891689
C            5.00030560846497        2.26200093733536        0.94732164515308
C            6.28231455069055        1.88307617909185        0.64011629660704
H            7.11613971897156        2.34686374715376        1.14484074170863
C            6.52130153757835        0.89671726300989       -0.32307046772038
H            7.53585309981042        0.60940607879688       -0.55234301045277
H            4.83078875705165        3.02151149879163        1.69337532938608
C           -2.74616990124984        3.80211707486558       -0.94966687435474
C           -4.09189127633566        3.95142000359000       -0.66347559958550
H           -4.66073392505370        4.72501145379068       -1.15656094762510
C           -4.70888987839033        3.11468825545344        0.25746049568145
H           -2.28365409812661        4.46405794838233       -1.66382161228555
H           -5.75681754375967        3.24029176670081        0.48377349344252
C           -2.45898233775065        0.02812693594233        2.11557803593738
C            3.23442232542649       -0.94711924621349       -2.29723978456067
N           -2.97648425492506       -0.69519907888415        2.85241487154862
N            3.39976774068351       -1.74369275173959       -3.10614200135072
C           -3.98864360364664        2.12054973335481        0.88242320104709
H           -4.45908354276245        1.46242981169193        1.59635034301319
C            5.47470402560334        0.29585098270517       -0.97200909161167
H            5.64510246446958       -0.46906020763291       -1.71418303614710
C            0.13065182405316        3.53212275427768       -1.54464063415561
H           -0.30592955379840        3.42000073336138       -2.53635629422867
H            0.03266676519248        4.57538373989241       -1.24556840575457
H            1.18784899700464        3.28936454780021       -1.60679955405400
C            2.22301262209546        3.07198878757858        1.58746022977826
H            2.58616516007680        2.76729909195780        2.56789383740331
H            2.70116801420755        4.01477368704812        1.32534196456042
H            1.15050989552678        3.23311025551635        1.65062279524611
