65
 energy: -114.923409637372 gnorm: 0.000417996212 xtb: 6.5.1 (b24c23e)
Si           1.01465208248430       -0.66150339432000        0.91450506258545
O            2.40979673706469       -0.73582120056107        0.12587143076311
C            3.53719922466117       -1.57768098711949        0.24570484022257
C            4.56957883999196       -1.17082782511050       -0.77567760543644
H            3.21179733660347       -2.61196697564911        0.06303644178193
C            4.76889818322530        0.16976883232125       -1.07566907579185
C            5.36258457771247       -2.13551444624678       -1.38356881281435
C            5.74934411553844        0.53732386963847       -1.98069902212580
H            4.14725732289959        0.91803967607930       -0.60800689450464
C            6.34690376118517       -1.76332861942886       -2.28173163609807
H            5.20842054408111       -3.18005489054026       -1.15090291147321
C            6.54175137029053       -0.42554175959604       -2.58210253742819
H            5.89635615867882        1.58176485092953       -2.21195835281341
H            6.96086467867272       -2.51921549936162       -2.74937766185977
H            7.30963830679975       -0.13649321082046       -3.28479111595587
C            4.14675868565540       -1.48999085859234        1.65860052609675
C            3.34417640847851       -2.21304366242857        2.62063702024493
H            4.21099281823413       -0.43603774297785        1.93944295699922
H            5.15480447425093       -1.91181225888928        1.63344543041270
C            2.65279150388849       -2.83842579148634        3.37133104390507
H            2.04865033864991       -3.36795452407652        4.04581484485706
Cl           1.16559914423840        0.27449364248366        2.66844883952002
Cl           0.21113434033851       -2.50759416781900        0.88760093808041
O            0.15418746273822        0.20586029695042       -0.21681522210801
O           -1.61365291858104       -0.27736164841623        1.90263802924350
C           -1.85417008774363        1.39167590702661       -0.02818562044553
C           -2.48468499851345        0.05806653877864       -0.16403392110491
C           -2.88866463323693       -1.94033255468434        1.00872740967386
C            0.23678349466199        2.53807667182785        0.19520815229584
C           -0.45073177524335        3.76861769024733        0.37786530008043
C           -2.57168488129245        2.54231621859179        0.14372060657185
C           -1.86908468625983        3.78832039132003        0.33965133736891
C           -3.16274429017584       -0.37627236308726       -1.27339523359729
C           -3.76675583354894       -1.66729678051411       -1.25339969701890
C           -3.63035471212164       -2.45494927569616       -0.08208831495550
N           -0.49518607532813        1.39886385032927       -0.02416519826387
N           -2.32200963598910       -0.72371157709786        0.95225674165664
C           -2.52548062546507        5.00725029471623        0.50505458375917
C           -1.81379091884910        6.17606286905054        0.70959654498510
H           -2.34210492720747        7.10884256688416        0.83455891775277
C           -0.42536304632258        6.15125682783554        0.75821274646215
H            0.12503577391159        7.06476182986116        0.92399162907690
H           -3.60218853683355        5.04692653934907        0.47288408657773
C           -4.49928747143771       -2.19210429736613       -2.33339275617638
C           -5.06727677745979       -3.43824666435456       -2.25418968736233
H           -5.62782872412115       -3.82810068331992       -3.09027429678856
C           -4.92666256229089       -4.21204261769190       -1.09712035257003
H           -4.61746466802290       -1.60664454786416       -3.23086380439827
H           -5.37721110631828       -5.19152799209753       -1.05181277718849
C           -2.71504282017797       -2.68128180293295        2.19408432385148
C            1.62176413695160        2.47133276336584        0.20005067205068
N           -2.61774633312086       -3.29638785478343        3.15744473409789
N            2.77722868464810        2.47039756527169        0.19944295005445
C           -4.22063875176955       -3.73115985963702       -0.02549469504518
H           -4.10272174229134       -4.31844921920534        0.87222193516979
C            0.25313449647878        4.96377459105963        0.59430117664966
H            1.33120165973279        4.93437907695354        0.62948856725683
C           -4.06884234066224        2.52645212131451        0.17142757906074
H           -4.42595201388542        2.96042376531898        1.10434137555785
H           -4.47218015927823        3.11539148714778       -0.65231545094312
H           -4.45642689619464        1.51497207961369        0.09561672568149
C           -3.25784417474445        0.48916599666172       -2.49006584823862
H           -2.86638750603489       -0.04346118673294       -3.35518226180142
H           -4.29586254617234        0.74999054708817       -2.69322085323546
H           -2.68868948627579        1.40502438256284       -2.36075488292480
