65
 energy: -114.926333451216 gnorm: 0.000726000052 xtb: 6.5.1 (b24c23e)
Si           0.72193657616205       -1.25738088119688        0.19077578740514
O            1.88254484773269       -0.13155362252812        0.33457468423699
C            3.14216904380905       -0.26769088068316        0.97058950823311
C            3.98826397589075       -1.30253722924159        0.27810089874840
H            2.96910848760249       -0.57263317833044        2.00918590483074
C            4.07582821799853       -1.31437134104591       -1.10751926591896
C            4.66687626553913       -2.26252312348759        1.01493698834887
C            4.82904757098546       -2.28121039260860       -1.74822122703215
H            3.54139558548579       -0.57418099089178       -1.68425714699311
C            5.42413955884688       -3.22470417566455        0.37200441219907
H            4.58639120911974       -2.26472768936018        2.09174072800106
C            5.50477471077175       -3.23714597203059       -1.01010657736424
H            4.88379557070969       -2.28783739950778       -2.82652073304400
H            5.94254042220848       -3.97346570745805        0.95200062713729
H            6.08808415115864       -3.99550372689717       -1.51109448819369
C            3.82923738534812        1.10779394705741        0.94813313736452
C            3.03920324424084        2.09150926443079        1.65511565757276
H            3.96730754255220        1.42110370660408       -0.08925147406758
H            4.80966709184353        1.01282165226982        1.42148932903192
C            2.34884038621703        2.87581439769918        2.23888824320451
H            1.76602021110482        3.57894865946558        2.75500484198455
Cl           0.51432405829785       -2.58854716017630       -1.32996621590505
Cl           1.33420535803723       -2.59180008911078        1.69235831802815
O           -0.65941180658317       -0.83445773309172        1.13866348075986
O           -0.04199690755710       -0.00459477144312       -1.15672984055714
C           -2.28328822024013        0.46573853419072        0.06318225298169
C           -1.26248811496685        1.53460144681536        0.03107098569206
C            0.77538513751504        2.14745012749729       -0.98834968708081
C           -2.70384523656849       -1.80797083214916        0.62119658050579
C           -4.01476197527584       -1.71817927660227        0.08960844966354
C           -3.52696013302906        0.61518958058122       -0.50071969351776
C           -4.44822448553604       -0.48756754276190       -0.46993847177834
C           -1.39217695680077        2.75354409120293        0.65468125459862
C           -0.39398570220459        3.75333324910138        0.43061777530951
C            0.69026851786919        3.44883169114693       -0.43317326877804
N           -1.90016474371058       -0.71392330306811        0.61248515683084
N           -0.17404665998107        1.23361658872121       -0.72148160238981
C           -5.75002782346024       -0.40693073038828       -0.97477015316999
C           -6.59034610079075       -1.50098487424835       -0.94053756388885
H           -7.59194053331282       -1.41791818323194       -1.33365753954773
C           -6.15406686307367       -2.71106994724365       -0.40566826439205
H           -6.81658241916050       -3.56245260298219       -0.39063774029453
H           -6.10874267214413        0.51972624847288       -1.39210598441191
C           -0.44892233895805        5.03134536996147        1.00635694673492
C            0.52309417762242        5.96779089899782        0.73489496392419
H            0.46578091933724        6.94582838320184        1.18819869011863
C            1.58163095391842        5.66447183389928       -0.12192008057790
H           -1.26184062370803        5.28608875419588        1.66716895391871
H            2.33589401129422        6.40811733996680       -0.32665008030728
C            1.83731671028656        1.76704429294786       -1.81867526507996
C           -2.23209467849107       -2.99421164887852        1.19144871651667
N            2.71152514272040        1.49731610580658       -2.51489565827502
N           -1.90864714106700       -3.98984130817384        1.66802896494374
C            1.66706222500020        4.42225830868541       -0.70148789390247
H            2.48363415666011        4.17400984085159       -1.36141966088069
C           -4.88288103496255       -2.82342350660198        0.10595087737484
H           -4.53294168352504       -3.75342088677983        0.52602968600066
C           -2.54135501913445        3.02613970144952        1.57285611275752
H           -2.16674663052397        3.32852960976532        2.54978252022498
H           -3.16471638715154        3.83228737319390        1.18710527547099
H           -3.15709887449594        2.14105361253334        1.70209963235808
C           -3.92541387736440        1.88415255037135       -1.18741669232346
H           -4.29218737700114        1.65857801361134       -2.18750209010039
H           -4.72456251831433        2.38335287356436       -0.63974584785137
H           -3.08802288482572        2.56910965956341       -1.27727313537855
