65
 energy: -114.928650795238 gnorm: 0.000539580653 xtb: 6.5.1 (b24c23e)
Si          -0.09014627162911        1.19481808457299        1.41680517241809
O            0.74766404357102        1.53251079613609        0.10716282525681
C            0.57840932804206        2.25575160525884       -1.11311045795764
C           -0.60267123859965        3.18229059851128       -1.03916770345901
H            0.40803859499428        1.48937692570208       -1.87998825178780
C           -0.64512094291870        4.19952887519239       -0.09291662237023
C           -1.68523196494926        2.99391571258437       -1.88793659483029
C           -1.75815057524680        5.01498099421141        0.00315053631399
H            0.18590097660564        4.34731320791005        0.58094789686464
C           -2.79643152280340        3.81273909023302       -1.79161759506876
H           -1.66163760763434        2.19826669023422       -2.61732881785116
C           -2.83510599349781        4.82308973995138       -0.84590712660076
H           -1.78366423237790        5.79929573674315        0.74479781267497
H           -3.63461404440714        3.65162267312887       -2.45211831673901
H           -3.70459120865268        5.45854052318507       -0.76681168773286
C            1.89269751592968        2.99147887958040       -1.40474951482330
C            2.95908475135050        2.04681023153731       -1.66501625114245
H            2.16086280577859        3.61354145107060       -0.54712668425608
H            1.74725299801160        3.63302936364570       -2.27744699606012
C            3.81557860098502        1.23955876018839       -1.87853589694503
H            4.57604872247264        0.54318295830680       -2.06891209052512
Cl          -2.07061543991600        0.93514259961553        1.12938606707634
Cl           0.21284027095526        2.42406703309773        2.95542319653053
O           -0.31234793776489       -0.56012817179629       -1.93261546252093
O            0.51498111362613       -0.29131111322311        1.86233909913504
C           -0.48445912089276       -1.86589491693760       -0.06680315912909
C            0.98581262758757       -1.72477673577653        0.03403329105444
C            2.76209115548719       -0.66695289458145        1.24746374664441
C           -2.38697764913554       -1.21479764610417       -1.28304258455298
C           -3.23334131105051       -1.89232844725990       -0.37309880634922
C           -1.23364997565339       -2.56100315729870        0.84811935240206
C           -2.65245720713044       -2.58140810510405        0.72046077835907
C            1.85348068924198       -2.29362864735880       -0.85129798790667
C            3.26687847899183       -2.02158472244907       -0.73130459468517
C            3.71130191409782       -1.20327991449382        0.34029431930877
N           -1.04879683549152       -1.19439574269257       -1.12887880626634
N            1.43415182712511       -0.97719320207047        1.08283763050259
C           -3.50384064730412       -3.23380663289661        1.63029758753150
C           -4.86381158852465       -3.20931890118303        1.45679336394553
H           -5.50573066693615       -3.71244892136672        2.16392582205275
C           -5.43078887611509       -2.53378231304422        0.37041609997834
H           -6.50297203316231       -2.52381702621418        0.24849616882835
H           -3.08403264459277       -3.75026721294165        2.47822857904179
C            4.21078547819257       -2.50619819095518       -1.63512293296969
C            5.55612311054656       -2.21686694089962       -1.48309525824164
H            6.26998900864363       -2.60269835727363       -2.19521587765342
C            5.98930378342740       -1.43071865096975       -0.42112193796798
H            3.89542897003252       -3.10702767755017       -2.47266449751138
H            7.03997558503768       -1.21056161737365       -0.30603138937195
C            3.11824443150942        0.17566796674717        2.29041258759883
C           -2.91243236554936       -0.49695838026738       -2.37326230436236
N            3.42840956691634        0.87479327894501        3.15597654261188
N           -3.35528325830405        0.08528721937450       -3.25780160487965
C            5.08016462502470       -0.92257399366922        0.48039640077670
H            5.40279086567744       -0.29898569780210        1.29994141420343
C           -4.63130940008085       -1.88329590515168       -0.53191886125667
H           -5.05675053543361       -1.35233474793379       -1.36991148818102
C           -0.55832964368224       -3.28407821030022        1.96988326675853
H           -0.70686390936882       -2.73867733184599        2.90166166504495
H           -0.97305605884590       -4.28284522526992        2.08638816239387
H            0.51005230113513       -3.37332955768721        1.79269699450289
C            1.34319375453442       -3.17401509573305       -1.94769974584153
H            1.35428974147167       -2.62835386190005       -2.89126073499638
H            1.96441203941992       -4.06129381635326       -2.04972502074511
H            0.32232703123579       -3.49313031195295       -1.75152471627398
