65
 energy: -114.926357608136 gnorm: 0.000430378269 xtb: 6.5.1 (b24c23e)
Si          -0.90390031418497       -1.23411863673544        0.12314793399485
O           -1.93427499133884       -0.01800385513199       -0.18748623840404
C           -3.16834233342055       -0.09226900889212       -0.88046425354770
C           -4.14550259660610       -0.98091391827830       -0.15792751095554
H           -2.97504968978005       -0.49733428932205       -1.88059801852478
C           -4.27683375650194       -0.89132297089548        1.22124629151730
C           -4.91090002324412       -1.90103111372532       -0.85991737336836
C           -5.15856433563645       -1.72007953331606        1.89122004114878
H           -3.67764912694531       -0.18054861290004        1.77059584252538
C           -5.79764993137727       -2.72334468652542       -0.18840241736119
H           -4.79912698238624       -1.98250072857774       -1.93091465097762
C           -5.92122567016026       -2.63622379323478        1.18782249680958
H           -5.24613357942119       -1.64973720341419        2.96498626791265
H           -6.38546267133802       -3.44138516664039       -0.74076140064206
H           -6.60703244118172       -3.28585028231851        1.71163715656211
C           -3.72501219204366        1.33616708479194       -1.00352341871095
C           -2.82206962079977        2.18443650954457       -1.74930216832848
H           -3.87542916440058        1.74673347011171       -0.00229027373433
H           -4.69055071343806        1.28793210159947       -1.51320389428088
C           -2.04417363817251        2.85668248185736       -2.36187899290751
H           -1.38154361112351        3.46030730255106       -2.90621161160428
Cl          -0.92027347349043       -2.43619263129477        1.75993362342336
Cl          -1.56208215419197       -2.62816832478503       -1.30069482820123
O            0.56686085199105       -1.03175597373613       -0.75914614267830
O           -0.09648030725555        0.06192871052486        1.41427070760390
C            2.24312691523753        0.20708171429933        0.30837680976777
C            1.33174056989483        1.36365532012133        0.17723329996242
C           -0.68721642301649        2.25617566721449        1.00993338587566
C            2.47521989417042       -2.13657452709903       -0.02556832294770
C            3.75232075493532       -2.11875213730779        0.58953170107980
C            3.45679878053732        0.29322794335524        0.94556035821514
C            4.26484883815647       -0.88804885922933        1.07756005172902
C            1.61331137425572        2.50001542651865       -0.54404851366873
C            0.70428587333819        3.60226098938432       -0.47731646253684
C           -0.44760882812781        3.48398762564011        0.34352853762779
N            1.78076297159400       -0.97786941742113       -0.16269063345696
N            0.17981144669496        1.23657550212315        0.88322882004236
C            5.53012009979968       -0.88203807067161        1.67330972081087
C            6.26101046165170       -2.04652904909703        1.79207536575484
H            7.23573184024367       -2.02078267257168        2.25454692636214
C            5.74845772604190       -3.25356057544733        1.32203495838613
H            6.32594744868018       -4.15918531937193        1.42437320682909
H            5.94654179648527        0.04107190904814        2.04200185172076
C            0.91047455408414        4.80614352686043       -1.16734429383008
C            0.01936624405533        5.84837848073292       -1.04550253172687
H            0.19217411679571        6.76664683049459       -1.58616645852167
C           -1.10535116290179        5.72909163772643       -0.22834221724393
H            1.77672366164390        4.91880708814011       -1.79928834746475
H           -1.79463960217594        6.55438295558279       -0.14092461188457
C           -1.82088134970585        2.05687601311747        1.80832527843789
C            1.92823698163051       -3.32086785933878       -0.52830812199497
N           -2.74930884607023        1.93630616978963        2.47551600111814
N            1.54209331715013       -4.32144539953698       -0.94423598690210
C           -1.33859382867153        4.56391431770900        0.46023935160601
H           -2.20773192706783        4.45756183041581        1.09051685664548
C            4.51005171702061       -3.29467438642648        0.72605622019009
H            4.10233566529154       -4.22235738528713        0.35591705167272
C            2.83474193912889        2.57804009061209       -1.40425095115854
H            2.54811376138793        2.81081145527263       -2.42885627935085
H            3.50588479909293        3.36248577190228       -1.05578532152980
H            3.37262038457645        1.63469269962453       -1.40582705925466
C            3.93423940514823        1.57929632385345        1.54444370188052
H            4.20649808207993        1.41841322011823        2.58637153519887
H            4.81579748911407        1.94448923925839        1.01789041378518
H            3.16693552426635        2.34624397863493        1.50671554148644
