65
 energy: -114.917636084744 gnorm: 0.000871036150 xtb: 6.5.1 (b24c23e)
Si           0.79071931923272       -0.68518164939488        0.36051214647417
O            2.28849914650543       -1.20831211643164        0.05313685353335
C            3.51840360303063       -1.06088574027543        0.71534616492879
C            4.63747870436973       -0.94694280501760       -0.28580971754839
H            3.49086996282127       -0.16173926645974        1.34156644199516
C            4.54115636190578       -1.55775873777032       -1.52778375926739
C            5.79514482627955       -0.25691970034947        0.04798760520604
C            5.58854022976106       -1.47397707713928       -2.42769652301671
H            3.63507021743235       -2.08450045292008       -1.78474447921195
C            6.84455738318143       -0.18172369554942       -0.84933731611016
H            5.86937722881644        0.22637605743836        1.01178085645770
C            6.74323109974448       -0.78999220023518       -2.08927138777025
H            5.50336478398670       -1.94602564787066       -3.39571258832474
H            7.74171199629361        0.35762369236766       -0.58260300408925
H            7.56167678252749       -0.72655555746270       -2.79155885562425
C            3.73726357448514       -2.29860338039874        1.61479043807725
C            2.59561079007784       -2.49380456483386        2.48162555127697
H            4.64859435903560       -2.15888588285637        2.20008647051804
H            3.85293594851343       -3.17867749246262        0.97565457183163
C            1.59012225020171       -2.61785630063900        3.11935522361701
H            0.72378538544091       -2.75996746144882        3.69386600744619
Cl           1.34102357677524        0.83373095820989        1.77830375328423
Cl           0.08174796906158       -2.42591705262008       -0.64997441656040
O            0.27041307134232        0.33882838826064       -0.93648132198644
O           -0.76238237878674       -0.56736401531512        1.27508343468991
C           -1.65244053271570        1.43135992039565       -0.20485415884077
C           -2.32336545161050        0.10948259330216       -0.28984342088952
C           -2.45982680591864       -2.03953991940408        0.70971438691157
C            0.38179982570529        2.61745649525963       -0.53928022242139
C           -0.21653942833230        3.82109458672507       -0.09324804441106
C           -2.29071165240790        2.55218212834286        0.26738160396159
C           -1.57472090221457        3.79667175360539        0.32020584954482
C           -3.34696136680046       -0.16640527542364       -1.16097230139664
C           -3.98089425872352       -1.45271546258451       -1.10565803505580
C           -3.53971063756024       -2.39122566210652       -0.13544465079971
N           -0.35606997673953        1.48705305007321       -0.59845401612525
N           -1.89239640427985       -0.82346145874760        0.59648763023148
C           -2.15440472698955        4.98935324479119        0.76733134686039
C           -1.42254523580152        6.15784602910057        0.80925345363751
H           -1.88793175585657        7.06732321934090        1.15743972030160
C           -0.08745017639953        6.17297147659391        0.40965614852385
H            0.47545725396383        7.09249872046552        0.45225606054128
H           -3.18501642148417        5.00113559552157        1.08226640833666
C           -5.03038728288296       -1.82105242739079       -1.95650141965110
C           -5.61979566510218       -3.06254383038518       -1.85257337395848
H           -6.42695466163612       -3.32834567992870       -2.51796508273620
C           -5.18182480040728       -3.97906760590354       -0.89705798952811
H           -5.38461380422982       -1.12853677366139       -2.70250849150430
H           -5.65052432804900       -4.94854388112389       -0.82910902248983
C           -1.96635271795254       -2.89595314534534        1.70324657647842
C            1.72261145553999        2.54560854252570       -0.93591939447357
N           -1.61724228083912       -3.58634787190231        2.55313510808534
N            2.82129389911602        2.52406801538670       -1.27496599184385
C           -4.15445096406266       -3.65156018280463       -0.04574839398625
H           -3.79835584713247       -4.35205486695639        0.69343316338477
C            0.51333670728397        5.02041517168545       -0.03795934441659
H            1.54669245314812        5.01455759958816       -0.34804905611527
C           -3.70205171127018        2.49153781912030        0.76165093207126
H           -3.74901438572003        2.86787480403021        1.78243272364527
H           -4.35158187067982        3.11031175284608        0.14303982687341
H           -4.08272109657294        1.47491432451004        0.75400934181980
C           -3.78624540614102        0.84009852471036       -2.17696532396688
H           -3.70299744925913        0.41283075820391       -3.17506423049316
H           -4.82622305594632        1.12167794224728       -2.01501886527552
H           -3.17297772510071        1.73513567645376       -2.13571660065802
