65
 energy: -114.928081472702 gnorm: 0.000935514681 xtb: 6.5.1 (b24c23e)
Si           0.14764435917643       -2.07638198062455       -0.32251419280416
O           -1.32679347629964       -1.50974966005776       -0.03235463126877
C           -2.60418056888960       -1.98254171845614       -0.44478636569400
C           -3.38698598877097       -0.76184989931305       -0.87490902069054
H           -2.45876968856508       -2.63281927103255       -1.32043175911302
C           -2.82233684272115        0.03648295032164       -1.86611034791986
C           -4.60974925602474       -0.39443784298375       -0.33264437639370
C           -3.47169600116346        1.16972119095766       -2.31606847906629
H           -1.86486983916646       -0.24400310318592       -2.28172215882287
C           -5.26579322105978        0.73512916068767       -0.79479006869571
H           -5.06297093105222       -0.98159775028393        0.44969561432063
C           -4.70356684965147        1.51705304148709       -1.78727962880447
H           -3.02271856765888        1.77812940565235       -3.08752883770206
H           -6.22309764702628        1.00412178459064       -0.37327591305999
H           -5.21980984198531        2.39461946801396       -2.14692516347941
C           -3.23068989461812       -2.81273949552558        0.67952667389771
C           -2.43291794770382       -3.99768512233063        0.91773203897048
H           -4.23921224572687       -3.11193138054821        0.38431179894701
H           -3.27282382874977       -2.21735955353426        1.59566741419955
C           -1.73831825985929       -4.95863237659562        1.07624557752826
H           -1.14132425459534       -5.80512356616173        1.23902263332214
Cl           1.11506860341573       -2.96465221428983        1.16751141615175
Cl          -0.00326130556970       -3.30197405835867       -1.92415458847847
O            0.97387367082745       -0.80385199046166       -1.03016180283129
O            0.31232226200510       -0.20175619700395        1.56682091324909
C            1.90002435672642        1.08139643961808        0.00876901656545
C            0.49737111274973        1.54022872526374        0.12609133648325
C           -1.50583580376788        1.14987213602697        1.29085668781450
C            3.30054102388619       -0.74555552738733       -0.64843807391947
C            4.44579046374686       -0.04772221271114       -0.18385817473951
C            2.96306370023884        1.79964139754568        0.48422943892610
C            4.29141756995881        1.24610331298460        0.37973547089437
C           -0.03691967014305        2.59414757451636       -0.57229296317217
C           -1.37253021244660        3.00536937045367       -0.28994113608518
C           -2.10737872814266        2.27828032389098        0.67976260089470
N            2.07461236206482       -0.14256328855785       -0.55420729016294
N           -0.23434124098676        0.80502687942023        1.02166101355876
C            5.43007130861502        1.92420309743385        0.81530573223750
C            6.68360576027811        1.34984300778356        0.70746360083550
H            7.55134971598912        1.89314270547213        1.04907550655620
C            6.82917427760050        0.07808442213995        0.16453598998935
H            7.80954578089500       -0.36656020960174        0.08764267537527
H            5.33947735500306        2.91096006461284        1.23980987853252
C           -1.98458132874614        4.11124294671249       -0.90485134078720
C           -3.25727133546203        4.49020247300906       -0.55749459226794
H           -3.71136291339935        5.34660613632564       -1.03268824924464
C           -3.97041409010794        3.77954493540686        0.41149716716786
H           -1.44365708396198        4.67427097541770       -1.64830472440525
H           -4.96721562025270        4.09374059553841        0.68010903779563
C           -2.22875784233845        0.33495819465363        2.17641707251928
C            3.39233420575737       -2.00137664425729       -1.23689372938222
N           -2.86099256680965       -0.31548852574182        2.88084697292620
N            3.50192520788517       -3.03296509378021       -1.74204009156741
C           -3.40951119612158        2.68539543758840        1.01866375772213
H           -3.95231086294438        2.12570721572365        1.76471860725664
C            5.72609496479088       -0.61714320342360       -0.27768459575663
H            5.82685577058671       -1.60407945171050       -0.70231905408408
C            2.76888047217377        3.12967365973844        1.14424702718339
H            3.21401008875169        3.11672359799748        2.13822291772717
H            3.25337083729070        3.91729110519378        0.56698940797281
H            1.71555549540302        3.37304626729250        1.24531555981277
C            0.77230474372670        3.30384008011844       -1.61161012181975
H            0.23822987759872        3.30204999497392       -2.56057471493958
H            0.94531221927844        4.34008155709625       -1.32299399600213
H            1.73365538683089        2.81916770485144       -1.75474237425717
