65
 energy: -114.923409780636 gnorm: 0.000534594348 xtb: 6.5.1 (b24c23e)
Si           1.02631208452901       -0.62802523164307        0.82685323595714
O            2.41808513262489       -0.66369564188223        0.02958009987756
C            3.56359398016034       -1.48293407336430        0.13737943904002
C            4.57470113043133       -1.05358130143059       -0.89570219377947
H            3.25751321570911       -2.52337285985661       -0.04331024617272
C            4.76919471824980        0.29413303664275       -1.16660488577304
C            5.34969665281669       -2.00377575769788       -1.54775748995755
C            5.72807638157990        0.68281390245709       -2.08574785301371
H            4.15881400323056        1.03111770309437       -0.66720166345056
C            6.31188154835601       -1.61062617498696       -2.46102969562998
H            5.19875388189224       -3.05365465806823       -1.33827135514580
C            6.50265704751849       -0.26597883472896       -2.73152759460517
H            5.87210514864536        1.73246089160122       -2.29418514924058
H            6.91113424886813       -2.35558639680408       -2.96403641320031
H            7.25289443395427        0.03961827213872       -3.44619688089814
C            4.18361352466686       -1.38377275083172        1.54467598295171
C            3.40922572061323       -2.13308628524431        2.50983314695529
H            4.22011486673638       -0.32971534300512        1.82996311056643
H            5.20294448379585       -1.77673606717063        1.50942986437401
C            2.73993516985832       -2.78020188372011        3.26191435065445
H            2.16158447145641       -3.32916736646167        3.94342100883518
Cl           1.16600828941790        0.29126069781369        2.59072950227207
Cl           0.26499495959864       -2.49176927155202        0.78393222559391
O            0.14516653669761        0.23686567901434       -0.29052451049521
O           -1.60220629883226       -0.32063541884490        1.83353264785568
C           -1.88936526899736        1.37152218973402       -0.06691768014736
C           -2.48975605871494        0.02618675690970       -0.22388576076486
C           -2.84664639857044       -1.99712788892301        0.92104057096557
C            0.17630813535916        2.56213563538642        0.16126464802925
C           -0.53785611288745        3.77099837662084        0.38151574396576
C           -2.63183944696768        2.50056631039647        0.13838673984395
C           -1.95672029365615        3.75744821754339        0.35933784686972
C           -3.16089459903220       -0.40672253498357       -1.33779385031730
C           -3.73397355891926       -1.71205273890801       -1.33612316814973
C           -3.57986862736954       -2.51210948748988       -0.17547974261727
N           -0.53112939613053        1.41075438036113       -0.07505432912624
N           -2.30554637921313       -0.76843502751313        0.87995808306863
C           -2.64008342486927        4.95522185567291        0.56525963846925
C           -1.95412423147819        6.13501806909660        0.79309822062405
H           -2.50306506646207        7.05098826158738        0.94964390597674
C           -0.56494291814278        6.14274406160906        0.82454477360213
H           -0.03476254111512        7.06474529126053        1.00824526755698
H           -3.71776988075936        4.96952989312713        0.54729135171333
C           -4.45303240259424       -2.23937616512106       -2.42388492327657
C           -4.99366816696792       -3.49862228812972       -2.36110345432257
H           -5.54367304783358       -3.89052344609035       -3.20322547261080
C           -4.83899277884578       -4.28299681472249       -1.21301030932240
H           -4.58200958716440       -1.64603894559040       -3.31468106538243
H           -5.26941575224903       -5.27197342183549       -1.17995919455659
C           -2.65400400814719       -2.75149696314091        2.09486756505691
C            1.56261594141587        2.52631978738073        0.15002822495320
N           -2.53977039089045       -3.37811634091378        3.04887640463117
N            2.71776397089354        2.54850304630476        0.13548733588107
C           -4.14384241655282       -3.80069029047302       -0.13486788809387
H           -4.01413198066025       -4.39641363754304        0.75564534443882
C            0.13980135924407        4.97686172117787        0.62115311702121
H            1.21863498401937        4.97259803749881        0.64330398338580
C           -4.12790926302487        2.44826700049306        0.17814451144149
H           -4.48644962039474        2.84350527104997        1.12763998188975
H           -4.55258842877514        3.05347638277721       -0.62271072804029
H           -4.49222488626943        1.43077628824640        0.07305446712590
C           -3.28166587918389        0.47545674333795       -2.54005682757245
H           -2.86818670940823       -0.02822150660306       -3.41232936364697
H           -4.32750754305802        0.70259587269253       -2.74338225279402
H           -2.74573365819915        1.40848718226376       -2.39273939931726
