65
 energy: -114.927074596734 gnorm: 0.000359349600 xtb: 6.5.1 (b24c23e)
Si          -0.09897879818321       -2.06905685996633        0.33368724885422
O            1.28921922860791       -1.40898277681553       -0.11377025792643
C            2.67740044354002       -1.51452057864698        0.10783046404495
C            3.13766407155306       -0.41318611002945        1.03472095191376
H            3.13928344089983       -1.38526087852980       -0.88114217092685
C            2.33775615370622        0.01674986501071        2.08451916658839
C            4.38707836200668        0.16582078134969        0.85238416291018
C            2.77805332627997        1.01728598522789        2.93259225826849
H            1.36596963484546       -0.42765736786939        2.23627433792898
C            4.82943485915083        1.15852209284962        1.70752470679290
H            5.01275659857529       -0.16304441522563        0.03520302472642
C            4.02421090624478        1.58951899776606        2.74780933743444
H            2.14742848960535        1.34313551550653        3.74678773507144
H            5.80338488594735        1.59992668345821        1.55867674332809
H            4.36806674098003        2.36783864396014        3.41249545868329
C            3.09729235192812       -2.88439054973337        0.66651544578797
C            2.65114098265876       -3.94692062473037       -0.20860373747778
H            2.66610668310222       -3.02172599720456        1.66033491906531
H            4.18707427784743       -2.89971033441286        0.74712651627560
C            2.24304926588935       -4.77974260315811       -0.96416286467919
H            1.90224419305719       -5.53267041564428       -1.60967963705426
Cl          -1.00543556409810       -3.01066968730649       -1.15718914357452
Cl           0.04571562970769       -3.17633849299491        2.00335053071245
O           -0.95316789036667       -0.76998677615189        0.93675737870672
O           -0.48189872542770       -0.09870303911609       -1.90816575354652
C           -1.86350800896049        1.10659072324737       -0.12942459066066
C           -0.44967720546785        1.51192548940234       -0.31465852099503
C            1.43675639340606        1.10637436926348       -1.65448942521232
C           -3.28662553908840       -0.68860079151582        0.57481332228369
C           -4.42859089362268        0.03991290786757        0.14791027823422
C           -2.92208685022815        1.85383260312692       -0.56276435930424
C           -4.26068464189048        1.33305574594652       -0.41303527532529
C            0.19810972229112        2.46322582347565        0.42821452809480
C            1.54259152645154        2.80321312390379        0.09876531413027
C            2.16077888515766        2.11846834022025       -0.97668667505609
N           -2.04998848211997       -0.11226708017784        0.43944930852260
N            0.16547092948372        0.81336035768261       -1.32525094794842
C           -5.39484820199955        2.04155290178413       -0.80721797270318
C           -6.65900580759456        1.49814298947719       -0.66095115552738
H           -7.52349788117130        2.06481761908133       -0.97142252193804
C           -6.81830987165727        0.22786586173999       -0.12040644035102
H           -7.80641237481318       -0.19287066849988       -0.01332687605487
H           -5.29256906145523        3.02722455224863       -1.23151893342012
C            2.27563798585808        3.79431885020564        0.77420056262037
C            3.55647362567821        4.10113048903338        0.39133186291500
H            4.10581474984744        4.86839990805973        0.91521152651218
C            4.15864626161170        3.42897931608179       -0.67632969438183
H            1.82234377631314        4.32293596221160        1.59694582240023
H            5.16533109924436        3.68416273346950       -0.96953580154964
C            2.03636847843898        0.34880148318050       -2.67627145745237
C           -3.38007744001439       -1.94407144278315        1.15928698044527
N            2.56981180580891       -0.25251813691487       -3.49598961285293
N           -3.47496956779631       -2.98045793724346        1.65930029873077
C            3.47620646558199        2.44961243548693       -1.34936074677969
H            3.93141398563345        1.92326788843073       -2.17456788970801
C           -5.71839298059656       -0.49760540218088        0.28109176481940
H           -5.82997325651607       -1.48445073694204        0.70345604592752
C           -0.50016773907547        3.13575410605933        1.56723537011364
H            0.06896799849038        2.99191988303070        2.48412429364172
H           -0.58619471010027        4.20629922550449        1.38509925990400
H           -1.49668345127869        2.72691207099898        1.70785574626657
C           -2.71230501221581        3.18499197665091       -1.21543416199405
H           -3.15023928147471        3.18267104912908       -2.21274638480728
H           -3.19298353194819        3.97310720304426       -0.63602408961496
H           -1.65560344626131        3.41873114962244       -1.30629457383640
