77
 energy: -129.327925978371 gnorm: 0.000366708065 xtb: 6.5.1 (b24c23e)
Si           0.16044403158069       -1.02909888753824        1.22972754777431
O           -0.66030622793682       -1.98286517617179        0.21960353508310
C           -0.49815559895731       -2.32413833327396       -1.14631637233092
C           -1.68317485245123       -1.76435581628184       -1.89765661147138
H            0.41711427643865       -1.85636671324736       -1.52010930424853
C           -2.84897832557635       -2.48710321568196       -2.11298305867247
C           -1.62695481472872       -0.44245010190977       -2.32631708903803
C           -3.92830159381384       -1.90079643189155       -2.75389560295844
H           -2.92638273694157       -3.50923187970689       -1.77776763306336
C           -2.70646464086330        0.14738963782773       -2.95802864997985
H           -0.72446742087736        0.12494721551796       -2.15321145905380
C           -3.86238925536354       -0.58372946285240       -3.17527121937384
H           -4.82895166589253       -2.47468972776317       -2.91717286081142
H           -2.64881378119268        1.17702143590652       -3.28023459169077
H           -4.70829476139673       -0.12571975465165       -3.66627203930772
C           -0.33913095780713       -3.84791255468562       -1.22831748853156
C            0.92671805796776       -4.22865098533260       -0.63626545807609
H           -0.37833986245678       -4.16536982467174       -2.27358669332261
H           -1.14438792863721       -4.32546665173481       -0.66578870409693
C            1.97380357553218       -4.48432029896652       -0.11792390341245
H            2.88491364883758       -4.72717958435775        0.33988976886301
Cl          -0.76035474807651       -1.92670871299516        2.89243650394710
Cl           2.06924736736331       -1.23179288920733        1.97711338560218
O            0.92445990653598       -0.13056733305045       -0.32271648521181
O           -0.49410161396020        0.49268361318604        1.67315234676247
C            1.22658753741286        2.07741443966315        0.23835390700039
C           -0.23418806017156        2.19583926609181        0.09270092437790
C           -2.39533546736373        1.31544870331958        0.58840131082065
C            3.09818163191001        0.68892629082110       -0.22922854152989
C            3.97865513718530        1.74577852012260        0.10533722536969
C            2.02888199274048        3.12704058740853        0.57960445605665
C            3.44023502545672        2.98112719160145        0.56340729637846
C           -0.76066906999488        3.09030550170518       -0.79317693552302
C           -2.16210390191954        3.13106136010460       -1.03812822944178
C           -2.98552790872060        2.21146738183273       -0.32717339793802
H            1.58584750387652        4.06827936998249        0.86161395411043
C            4.30007913385674        4.01978127741723        0.93302956573903
H           -0.10217241546025        3.74858080407188       -1.33683265512294
C           -2.73212318116319        4.01405481534517       -1.95379193371792
C           -4.37870362242444        2.25957103485275       -0.54491129337350
C           -3.16186585608079        0.33491510871483        1.35631054867310
N            1.76782872408750        0.88246478472919       -0.11122198792968
N           -1.04693091234344        1.35955083988218        0.78151139580135
C            3.54698125395574       -0.59485311662711       -0.77157020093588
C            5.37655630517457        1.63558875499663       -0.02913874534392
C            5.66677214914990        3.86482185112509        0.83499790945495
C            6.19825941495752        2.67650074138705        0.33747456345332
H            5.79836551261287        0.72783033232862       -0.42892220889352
H            3.87627222461308        4.94581773051117        1.29181189351841
H            6.32501986914229        4.66863602757824        1.12711620831312
H            7.26802115786988        2.57260793039185        0.23540837345348
C           -4.09788673781667        4.01540913947804       -2.17027931193847
C           -4.91346497263360        3.14267460810911       -1.45468253892652
H           -5.02185064552067        1.60260578316713        0.01764501228701
H           -2.09173585571315        4.69805306902657       -2.49110173660372
H           -4.53169767612829        4.69911642226679       -2.88368362151110
H           -5.98164063185863        3.16304852478893       -1.61136314723096
C            4.49254387983259       -1.37291658043591       -0.10495539520368
C            3.02041647171211       -1.05385236214294       -1.97883283113369
C            4.37657560713405       -3.02583185416227       -1.84330685058074
C            3.43333399698486       -2.26121240460223       -2.50793277150392
C            4.90236013989311       -2.57750061864425       -0.64219317925974
H            4.86451219394538       -1.04725896081859        0.85351332555672
H            5.63107584495450       -3.17501068833792       -0.11424741199516
H            4.69397222811764       -3.97102519573702       -2.25754904021829
H            3.01710157893709       -2.60635904140258       -3.44277703194995
H            2.29912601883767       -0.45138128595077       -2.51252884912284
C           -3.09082831979985        0.30130947410766        2.74827279095571
C           -3.96748425950566       -0.59139347305989        0.69359363804438
C           -4.59752101612333       -1.56391733156313        2.79391876067370
C           -4.67301807718005       -1.53680024815687        1.41087689851239
C           -3.80918730644261       -0.64033326375930        3.45851050399602
H           -2.47009803539493        1.01279560548365        3.27098620160885
H           -3.73859852658494       -0.66264778898497        4.53481001815073
H           -5.14390840910044       -2.30958815044776        3.35140379633969
H           -5.27741264978023       -2.26146061252763        0.88502433082311
H           -4.00603009645191       -0.58437286151539       -0.38472782592428
