77
 energy: -129.328023096893 gnorm: 0.000497057857 xtb: 6.5.1 (b24c23e)
Si           0.20140806032425       -0.92075531321439        0.91259329313781
O           -0.73660592389132       -1.48867939747636       -0.27957267301236
C           -1.59857879791224       -2.58881249652992       -0.37731590102476
C           -2.82847004813458       -2.17656786593959       -1.14569215323199
H           -1.87765812163987       -2.92612057856017        0.62935789897984
C           -2.75446415286696       -1.15515988170467       -2.08408963322766
C           -4.04280633953796       -2.81399177496237       -0.92868516668721
C           -3.88308148792676       -0.76197612612999       -2.78184764535606
H           -1.80882176999539       -0.65949166753477       -2.24328649046611
C           -5.16828527148108       -2.42834518626398       -1.63527598476528
H           -4.10484199907231       -3.60464227819891       -0.19504323014919
C           -5.09252741295546       -1.39868525485258       -2.55901654040617
H           -3.81910893162884        0.04549848694624       -3.49730239966690
H           -6.11065788390957       -2.92670428971759       -1.45969892859444
H           -5.97468287227145       -1.09165515818681       -3.10161876734943
C           -0.87257810109716       -3.73339998375746       -1.11562763011862
C            0.31965838549568       -4.12409176136553       -0.39526801068614
H           -1.55280986707095       -4.58303117516442       -1.21402325644395
H           -0.59247684126675       -3.38008374084432       -2.11192924467813
C            1.31165501831527       -4.38810239090216        0.21906932380267
H            2.17879323841865       -4.62814975454662        0.75763492626649
Cl          -0.92348766141115       -1.78153051844285        2.54200629587056
Cl           1.99252181315557       -1.40627942528495        1.82365016083540
O            1.11688786882542       -0.22235845687183       -0.53498642603739
O           -0.19324467249412        0.67094810925289        1.43659730967671
C            1.61020583630034        1.98392014500507       -0.13629800304507
C            0.16125271248736        2.22315451962865       -0.26445838652044
C           -2.05291649038116        1.70344724447234        0.46105749811414
C            3.36374151942693        0.40123052324101       -0.41900228629492
C            4.32632204372567        1.42307846341969       -0.22098432172178
C            2.49442254055533        2.99723602594910        0.09696018977027
C            3.89083077452499        2.74367699067630        0.08253400535657
C           -0.31043614787578        3.08888538981213       -1.20762646784254
C           -1.70944750766751        3.28771960453517       -1.37552254344217
C           -2.58983743416683        2.58472583039590       -0.50403811923906
H            2.12864008258288        3.99380209088806        0.28365927162143
C            4.83085486512056        3.75243802712393        0.31207584184395
H            0.38520153197103        3.60901191521867       -1.84609026889773
C           -2.22639920123579        4.14174739562894       -2.34920285645618
C           -3.97390839026071        2.83227636391740       -0.61745557877980
C           -2.87478467333999        0.94816601307804        1.40389429182641
N            2.05174515561469        0.72132837358521       -0.36145461143241
N           -0.70086354427508        1.56193764662224        0.54389347124571
C            3.72247688823171       -0.98363442767194       -0.72355228632625
C            5.71026763333112        1.19461482309092       -0.35587092798356
C            6.18093876870615        3.48530961973397        0.22058990099858
C            6.61333361884724        2.20861194695806       -0.13173449382156
H            6.05763929924171        0.21762094141982       -0.64990491996966
H            4.48237805592882        4.74513495725349        0.55501148670621
H            6.90152216996891        4.26772905427003        0.40302891937384
H            7.67010221596774        2.01321248111572       -0.23489254804396
C           -3.59075681755065        4.33009002629017       -2.46485258829642
C           -4.45553999814448        3.68355615373873       -1.58578169900181
H           -4.65309241224135        2.35773721313318        0.07169605796153
H           -1.54428821454493        4.65756498792483       -3.00869442726293
H           -3.98386601086480        4.98947080729560       -3.22330839714813
H           -5.51878259924175        3.85662144289731       -1.65975732745151
C            4.63488253145558       -1.67054720788024        0.07949629160049
C            3.14632180447662       -1.64296243812725       -1.80914637506423
C            4.39361659214211       -3.62563089015863       -1.29096037899035
C            3.48243829191990       -2.95347886650844       -2.08758245739139
C            4.96500186041332       -2.98024805284315       -0.20575938698559
H            5.04053820491422       -1.18681683922210        0.95415606177949
H            5.66340884116837       -3.50447980033136        0.42988663095793
H            4.64912533980234       -4.65202837835887       -1.50898382437379
H            3.02831684782324       -3.45498049189053       -2.92901905491253
H            2.43932960510930       -1.12409116096205       -2.43752653918861
C           -2.61808613174045        1.00793648987473        2.77470738870416
C           -3.92319311977757        0.14844675611233        0.94682668165796
C           -4.41629814546666       -0.52224201594252        3.19679791905066
C           -4.68021699352190       -0.58504418567373        1.83867951972915
C           -3.38760914186418        0.28063490963949        3.66028547049897
H           -1.81370805001079        1.62669459050228        3.14256068805952
H           -3.17408090338641        0.33033028333253        4.71702534250841
H           -5.00402393622169       -1.10362871251466        3.89095562403832
H           -5.47296845181749       -1.21668841372306        1.46562490485532
H           -4.11434854412789        0.07489371428146       -0.11228850904337
