77
 energy: -129.329073071682 gnorm: 0.000648060423 xtb: 6.5.1 (b24c23e)
Si           0.39015923700747       -1.14996256477407        0.38251690588735
O           -1.18894483824193       -1.28538096009482        0.02430374899033
C           -1.94964576029950       -2.37402044082178       -0.43374638099343
C           -2.93599063935138       -1.91714865265789       -1.48146745861975
H           -1.27427421121573       -3.12102075657143       -0.87145685782520
C           -3.03349906026194       -0.58260550117765       -1.84800376520280
C           -3.77163717885342       -2.84151176947958       -2.09954938530512
C           -3.96501986919714       -0.16916375048004       -2.78427335061018
H           -2.36661341147421        0.13479655273048       -1.39901200408499
C           -4.70094433598211       -2.43094853891536       -3.03740329885092
H           -3.68738394540210       -3.89024570744436       -1.85461976963894
C           -4.80844524694154       -1.09189312209171       -3.37641739913259
H           -4.02909920434086        0.87757559301729       -3.04734842828677
H           -5.34439781175523       -3.15994639669693       -3.50808249615308
H           -5.53932378840557       -0.77309725373139       -4.10489900599768
C           -2.68569059349856       -3.02227243426507        0.75812123743264
C           -1.75054607599134       -3.44362661092067        1.77801798196851
H           -3.25122147639525       -3.88571918998086        0.40203736226505
H           -3.37796882329706       -2.29354287886375        1.18576075520982
C           -0.95791921312498       -3.76709543774118        2.61354632046329
H           -0.25602490308959       -4.04793869529047        3.34006743262711
Cl           1.40232703789764       -1.45261421460735        2.14644357595510
Cl           1.03765018021115       -3.02270400793862       -0.46302919997137
O            1.21356664394222       -0.32937513814895       -0.89997592026376
O            0.03020073071755        0.47632124470861        1.15350638637021
C            1.53478588922209        1.93781657151987       -0.44894314874014
C            0.07416508226454        2.11907299624615       -0.45609277626522
C           -1.96544467826507        1.61385858711281        0.66089862924360
C            3.38323338209956        0.44106442097492       -0.53874928503323
C            4.27599426123488        1.49954822050501       -0.27775625830869
C            2.35964830559252        2.99956252854215       -0.21281213814930
C            3.76676378780145        2.82016060147632       -0.12000600723618
C           -0.53621814730662        3.02762928961082       -1.27217157862374
C           -1.92650326137974        3.28432848101167       -1.14099903134342
C           -2.63396016749181        2.60448053255490       -0.10999398733952
H            1.93323827665674        3.97820223070928       -0.06235745626302
C            4.64325478120423        3.87672236497831        0.12958011939158
H            0.04525645504294        3.56344961838709       -2.00437110631668
C           -2.58949972644870        4.20623324686989       -1.95450634421694
C           -3.97266471341278        2.97438312557896        0.12351819002848
C           -2.64665448087249        0.81634803156699        1.67479836338320
N            2.05582513202251        0.70185252662374       -0.64251260465966
N           -0.64116842573181        1.41146906447071        0.45367335671609
C            3.82089083848355       -0.94429655470674       -0.73131027209295
C            5.67122677876446        1.30306737916211       -0.20168777816714
C            6.00350333303851        3.65206129080432        0.21542278950901
C            6.51006494586398        2.36479977619963        0.04349720406483
H            6.06930209814663        0.31139254039510       -0.34535849441964
H            4.24291325883783        4.87189720910870        0.25352569465372
H            6.67560624521671        4.47371066556863        0.40937098562113
H            7.57559578438724        2.20026683565684        0.09997330068545
C           -3.92232276653422        4.49607650449234       -1.74306377399097
C           -4.59968004641521        3.89632739356763       -0.68540979055352
H           -4.50493764460927        2.54425495542634        0.95605567509208
H           -2.03932445872229        4.69498971667971       -2.74466947724900
H           -4.43067886040184        5.20446449196127       -2.37905314692201
H           -5.62866896937161        4.15968988797611       -0.49191876433772
C            4.46188847413407       -1.62472648930550        0.30215101995509
C            3.58521540190300       -1.59507613380975       -1.94003093180026
C            4.62821122721981       -3.57619211529040       -1.08315814511489
C            3.99453119522038       -2.90269954391142       -2.11334251867822
C            4.85628617478775       -2.93661269399826        0.12386483692591
H            4.60757678803441       -1.13308034641346        1.25220147393758
H            5.33201268886494       -3.46477480412851        0.93633608282494
H            4.93135979824965       -4.60364243843328       -1.21640919562517
H            3.80383359105173       -3.40168743340077       -3.05120330948561
H            3.07995073789253       -1.07282372252220       -2.73875897217994
C           -2.08209505882580        0.62139205849564        2.93764540522996
C           -3.88965725216693        0.23845936583115        1.39882779576365
C           -3.98529260855884       -0.67447509339454        3.61836492512394
C           -4.55189797290533       -0.49298713873761        2.36621687391474
C           -2.74584946880379       -0.12136357221281        3.89395939072770
H           -1.12479568055190        1.05882197038878        3.17205980985780
H           -2.29303765788039       -0.26673085220826        4.86285439064096
H           -4.50257655797504       -1.25309338022759        4.36867448999914
H           -5.51158278673159       -0.93436673459027        2.13647167240165
H           -4.31180076453902        0.32448019907972        0.40828683118667
