77
 energy: -129.331554596152 gnorm: 0.000451672183 xtb: 6.5.1 (b24c23e)
Si          -0.16993795901726       -0.98748024863978        0.08043510049188
O           -1.51899640173555       -0.48625427616920       -0.68199682916890
C           -2.32795752708453       -1.21070219569923       -1.57983451614065
C           -3.08000638755762       -2.31483698493410       -0.88317290386969
H           -1.68848528483878       -1.63696324147001       -2.36114371017250
C           -3.47020082837862       -2.16145033763006        0.43894672142097
C           -3.41377317551929       -3.47770379568447       -1.56283175515967
C           -4.17660387500136       -3.16316497416374        1.07918069324904
H           -3.20147518448530       -1.26048415623070        0.96877803074740
C           -4.12610698198686       -4.47591498014949       -0.92379097236430
H           -3.09931073881441       -3.60569517012439       -2.58821926075030
C           -4.50852397273594       -4.32127487182880        0.39825957273394
H           -4.46426207550170       -3.03714581011770        2.11253057107095
H           -4.37606661280785       -5.38160687217029       -1.45654513665829
H           -5.05817530647408       -5.10561142318900        0.89769241596207
C           -3.33698128026158       -0.24048040645587       -2.22243086343269
C           -2.68280269717524        0.94528773969110       -2.72991863044009
H           -3.84731549722246       -0.76221727651236       -3.03600573380268
H           -4.07521924325178        0.04430371871995       -1.46923140403072
C           -2.12316413799683        1.93159563497943       -3.11268662363213
H           -1.64586835352539        2.79585556461177       -3.46710318582912
Cl          -0.01320969709810       -1.81487908383099        1.95943301362555
Cl           0.01563276098678       -2.89584169546808       -0.90886147043157
O            1.23768385016017       -0.46889349901986       -0.77665984277298
O           -0.15308503367090        0.57640301185888        1.01848520066536
C            2.13091275015383        1.51991270994185        0.07014406611891
C            0.86988960926793        2.21490378290062       -0.23331418200078
C           -1.43001690491358        2.42027220354689        0.34036945238312
C            3.33261948456157       -0.52873835953611        0.23491041272445
C            4.41877524474051        0.13336345351171        0.83961275139638
C            3.16442314889609        2.20896656330553        0.63891852050195
C            4.35479947903653        1.54225039713050        1.03742654874134
C            0.83826917032703        3.35764902662379       -0.98107809968022
C           -0.36046189184825        4.10977600457697       -1.08384740976930
C           -1.49469704128547        3.65920012761881       -0.35212149626837
H            3.05822860834367        3.26636966774075        0.82006446378000
C            5.43014793387624        2.21043319755229        1.62357844809582
H            1.73471251634944        3.70000739170764       -1.47190164581854
C           -0.43285504988572        5.28945860248179       -1.83001519951046
C           -2.62767801239472        4.49454820174486       -0.31429607768445
C           -2.57616121709639        1.84347899338797        1.03444665879370
N            2.25038069580157        0.18983726722874       -0.16185726453101
N           -0.25393830334101        1.75153039445624        0.36679320114650
C            3.31170694814976       -1.97558721526641       -0.00046277430286
C            5.59237134143324       -0.54788720002970        1.22717072537398
C            6.56127668278877        1.51543671631831        2.00600541648719
C            6.63674408269181        0.13874836186266        1.80067677414833
H            5.66045075097664       -1.61087972387129        1.05972920731500
H            5.36569845860254        3.27791139232483        1.77308814545736
H            7.38927818226063        2.03843103361884        2.45910733213183
H            7.52890797527862       -0.39464048695888        2.09256880204277
C           -1.58563636048898        6.04835585913328       -1.83123173799889
C           -2.66884759319284        5.65940196567761       -1.04837381648972
H           -3.46388893662815        4.22779202087737        0.31094708755964
H            0.43139595775820        5.60240597959866       -2.39722826351612
H           -1.63794798036662        6.95423991047478       -2.41560215887878
H           -3.55118007350296        6.28041360071505       -1.01139495994051
C            3.36129315499708       -2.85332261282758        1.08101694732656
C            3.22188506454114       -2.48414159712469       -1.29361404665375
C            3.23229530857068       -4.71767402832154       -0.42209568945690
C            3.18922328680592       -3.84957334168105       -1.49940793011197
C            3.31495888306002       -4.21704594617240        0.86655970933542
H            3.39592529232172       -2.45812431661129        2.08535807707249
H            3.33010389174899       -4.88992966896277        1.71059708445217
H            3.18785688006305       -5.78373285395392       -0.58573780177482
H            3.11293909444503       -4.23597003755298       -2.50416726073311
H            3.17476045874450       -1.80623183773584       -2.13250441794930
C           -2.45628329250000        1.31045213686098        2.32041341886657
C           -3.82705575189875        1.81171071119304        0.41019690071394
C           -4.78586328645081        0.72421538684819        2.32339723238436
C           -4.91715449256581        1.25491998788892        1.04953456660882
C           -3.55246938436910        0.75645713197587        2.95346251268514
H           -1.50495046667305        1.33271209231995        2.82752313854084
H           -3.43971101430002        0.34295525360962        3.94440374112763
H           -5.63846133371996        0.28256629451661        2.81687026391895
H           -5.87428938729025        1.22586485568473        0.54853613877881
H           -3.92211992089491        2.19604717929787       -0.59424599425362
