77
 energy: -129.326641492920 gnorm: 0.000879563678 xtb: 6.5.1 (b24c23e)
Si          -0.12238391048641       -0.73492686895873       -0.11131786411595
O           -1.24827868793050       -1.87586479179224        0.13869200571937
C           -2.33505233123143       -2.36021725565154       -0.60098193106272
C           -3.55573554296915       -2.48802759944897        0.27209182882720
H           -2.54934296013372       -1.67918181496211       -1.43327434420373
C           -3.43881324170184       -2.60503945834462        1.64897947747568
C           -4.81520322834088       -2.53474890740159       -0.31182907642862
C           -4.56782187104056       -2.76744742610981        2.43250345492371
H           -2.45796617430010       -2.55954658474356        2.09581082481583
C           -5.94152217872680       -2.70669616500698        0.47143296955404
H           -4.90975100787143       -2.43351144600068       -1.38371054495740
C           -5.82012606842385       -2.82450178815774        1.84626822872806
H           -4.46851023399557       -2.85673817837823        3.50457089314505
H           -6.91737717571984       -2.74598037534420        0.00892985443472
H           -6.70078554749222       -2.95790450736402        2.45788933058900
C           -1.95330807499388       -3.74550942300753       -1.16823019840951
C           -0.77190115786761       -3.63288951053137       -1.99393933248261
H           -2.78916549291180       -4.14055638663043       -1.75004442459058
H           -1.74724242439381       -4.41898917595374       -0.33171537446264
C            0.22637075911590       -3.47040122881384       -2.63266789168479
H            1.09828510135301       -3.35283692151902       -3.20285025326196
Cl          -1.01300150478873        0.06153752958406       -1.91439881717554
Cl           1.02018027904811       -1.72461290552698        1.39539099864748
O           -0.39153077731593        0.60144260759645        0.92791124487814
O            1.34067688989533       -0.12775603484785       -0.89231525317718
C            0.94467293906226        2.33244401146523        0.14545191242014
C            2.13594969394473        1.53385390032459        0.50572792266228
C            3.44196440211137       -0.41487911543285        0.08844882082114
C           -1.43557500340321        2.51360388286981        0.09600427026802
C           -1.34170731158135        3.79520942210378       -0.49057562412104
C            1.08616946290437        3.56261683664207       -0.42650864189368
C           -0.05609324864698        4.33772573270834       -0.77322608929362
C            3.06446049127131        2.01613345830142        1.37965386432134
C            4.24109988839398        1.27193678265443        1.66893246825149
C            4.43543744047430        0.03976129137570        0.98353681042909
H            2.07339829910248        3.94207949624699       -0.63482720416619
C            0.05167402688111        5.59548293544687       -1.36674536136338
H            2.89860373894222        2.96578624001001        1.86221153995035
C            5.20571694609571        1.72482561594030        2.57037689213270
C            5.63678097832289       -0.66530010231905        1.20064190070486
C            3.56423468979990       -1.65073339456401       -0.68560415852916
N           -0.29444217109870        1.85356275366724        0.41258454824691
N            2.34130580875819        0.34275502637951       -0.11139475072738
C           -2.70265226324429        1.85193332099150        0.40205153610204
C           -2.47705827404904        4.58024239247981       -0.77670799607480
C           -1.08037727707472        6.32896686230380       -1.66616059980339
C           -2.33949442243234        5.82041094948297       -1.35733709481347
H           -3.45502842650213        4.20271867432172       -0.52530864764201
H            1.03306134305755        5.98888690808884       -1.58610853492556
H           -0.98896705152528        7.29999708147637       -2.12799188117409
H           -3.21922548835381        6.40832717967396       -1.57244904325686
C            6.35803008246643        0.99589059233778        2.78789157600736
C            6.57248948079926       -0.19111412049920        2.09052788649799
H            5.81739365853499       -1.57761488284614        0.65571911916465
H            5.03923288000832        2.65553854343652        3.09180914056981
H            7.09867083276922        1.35097709109223        3.48784446668798
H            7.48663835403825       -0.74358142028327        2.24812764789955
C           -3.66552457164513        1.68182296998348       -0.59363033129165
C           -2.95757787471703        1.36434998765298        1.68423636179631
C           -5.11559603861632        0.59138906013131        0.97786488094040
C           -4.15827129575010        0.74319705515999        1.96651816188727
C           -4.85998459262729        1.05248302641356       -0.30324448915694
H           -3.44750606283929        2.00636627535789       -1.59921868211070
H           -5.59453122773650        0.91504174616444       -1.08273246568220
H           -6.05149985552331        0.10360799125106        1.20274063069505
H           -4.34837730306599        0.37418383886304        2.96303678826964
H           -2.21679151926122        1.48487281354399        2.46006606976747
C            3.48687399917389       -1.61333580854851       -2.07692244061204
C            3.76511636969605       -2.87269087368076       -0.04447533633405
C            3.83859988809643       -3.98614514831947       -2.16988408531482
C            3.89272499318712       -4.03105861288266       -0.78599145471597
C            3.63539936089218       -2.77496811671377       -2.81123872331566
H            3.32293223851322       -0.67197701004620       -2.58014077281279
H            3.59435911192295       -2.73298498084249       -3.89077591492118
H            3.94400254225582       -4.89371694335910       -2.74607526143924
H            4.03119806458574       -4.97569170211053       -0.28181181991088
H            3.76996183685196       -2.90506789659045        1.03325938319533
