77
 energy: -129.316528181992 gnorm: 0.000684548645 xtb: 6.5.1 (b24c23e)
Si           0.02517489189573       -1.01036672991726        0.25252777528885
O            1.42532516116371       -1.73358932481755       -0.20184553507369
C            2.76089980571776       -1.52763212721690        0.15850686526582
C            3.57932587717175       -2.71246449114712       -0.29417713789923
H            3.11172318290697       -0.62072143038280       -0.34889132565851
C            3.03819567724041       -3.98982512803262       -0.25698513344131
C            4.89016337791668       -2.53905033450260       -0.71678284163389
C            3.79631998285064       -5.07909166030951       -0.64768576204979
H            2.01665058102051       -4.11517320994818        0.06748251638787
C            5.64934489243413       -3.62992433700125       -1.10108701672999
H            5.31146605123440       -1.54391024358858       -0.74720491361363
C            5.10331678947044       -4.90209667721896       -1.06866202871195
H            3.36577956742847       -6.06939456276836       -0.62209767175297
H            6.66847028076118       -3.48707427047580       -1.43076745437560
H            5.69547300719599       -5.75270053250723       -1.37353166948780
C            2.96595479545814       -1.34729019291704        1.67902864212296
C            2.32494256666610       -0.15619661337812        2.18588564475077
H            4.04112890400313       -1.29464529036320        1.87049780599767
H            2.55025372429168       -2.21757379672094        2.19250706805467
C            1.77683007922155        0.82817363475566        2.59311839420556
H            1.30160228741765        1.68080926624392        2.97803507202265
Cl          -1.04254656197023       -1.83432075005430       -1.29614307640241
Cl          -0.16340483822186       -2.08048972573332        2.05336665386082
O           -1.40073071026361       -0.09979691613002        0.98340277592603
O            0.55024772179328        0.50427339739583       -0.48605874653850
C           -2.06536667654773        1.57949758196040       -0.44234389311757
C           -0.87331350292086        2.32875445595410       -0.01100475391579
C            1.49811195197294        2.55532093486455        0.06334737457001
C           -3.45126269988503       -0.31447709214714       -0.07873189753902
C           -4.39127898780308        0.17805041139755       -1.01271214150229
C           -2.92959358148145        2.09281477776610       -1.36713618879785
C           -4.11841076080920        1.39467540263170       -1.69855053890920
C           -1.03830335337034        3.59215694405316        0.47994122439137
C            0.07965544660326        4.39014446213832        0.84735161868229
C            1.37608472888172        3.86814230686547        0.57270089829798
H           -2.70147630679280        3.02950477146086       -1.84957951819100
C           -5.02720310921250        1.87598197793230       -2.64694383287513
H           -2.03434348343835        3.99147272378397        0.58268556157320
C           -0.06445067809176        5.66366776267354        1.39579478019030
C            2.48312797952764        4.71731397770346        0.78372376111923
C            2.77281767791715        2.01272403118860       -0.40285979472105
N           -2.33538732741330        0.40231818904640        0.16444680911093
N            0.37091768817603        1.80051078512627       -0.13334371415083
C           -3.63513843611884       -1.55735024600446        0.67188486027980
C           -5.61184772291408       -0.47834823306450       -1.27082504127595
C           -6.19384786496881        1.19037716052969       -2.90697677629217
C           -6.48764994991757        0.02100895880282       -2.20512623094350
H           -5.85331299406027       -1.37349109639481       -0.72103086375038
H           -4.80103017100947        2.79398248896154       -3.16853171724686
H           -6.88862764363649        1.56392437230658       -3.64356108640142
H           -7.41630824956563       -0.49514284665152       -2.39652401340830
C            1.04542454210772        6.44655777787811        1.65097745918042
C            2.31224172399068        5.97355748634056        1.32008588152312
H            3.46957987899954        4.38098041510422        0.51055345624315
H           -1.05695066424007        6.03182545633368        1.60938961159449
H            0.92929448463382        7.42901417243935        2.08164550336577
H            3.17503842865528        6.60249113423586        1.48161927545190
C           -3.87712103269282       -2.75720634314865        0.00306250878056
C           -3.54118336664732       -1.55801438502019        2.06278002041460
C           -3.92662074376543       -3.92414434686693        2.09992635704169
C           -3.68947479753094       -2.73563485668331        2.76917007174562
C           -4.01837126339075       -3.93075350652012        0.71736464110668
H           -3.89610583335095       -2.76554538356599       -1.07526867002323
H           -4.18742107232223       -4.85794972054551        0.19042608738128
H           -4.02839446474436       -4.84533992825854        2.65382077322766
H           -3.60714973898675       -2.72595815479101        3.84523796589804
H           -3.35204978968082       -0.63459176268740        2.58876621104166
C            2.87644484208299        1.53967930430961       -1.71423177052268
C            3.91085857371970        2.00106664510907        0.40676509288894
C            5.21588161929606        1.10425059928447       -1.39879014517759
C            5.11847733233393        1.54930892586934       -0.08970301373510
C            4.08834601804418        1.09384377600641       -2.20496537787002
H            2.00507523368355        1.53353567953317       -2.35109631198850
H            4.15372291939065        0.73543576186351       -3.22126185693714
H            6.16382329238554        0.76303878613449       -1.78802754283349
H            5.98846060679881        1.54119042617670        0.55074072538942
H            3.83456720330033        2.31184312531199        1.43710826111431
