77
 energy: -129.326469736872 gnorm: 0.000482783524 xtb: 6.5.1 (b24c23e)
Si          -0.16571842565079       -0.72869245108700       -0.12941715177333
O           -1.50160438268594       -1.54869650148995        0.35629902940698
C           -2.36843490032855       -2.40335969662500       -0.33055189818915
C           -3.66801544695541       -2.53345808133467        0.41918967247801
H           -2.55585639115945       -1.99405891868334       -1.33313399039883
C           -3.68606106663254       -2.49876635246434        1.80589344386166
C           -4.85322412505269       -2.74060935317929       -0.27322165981086
C           -4.87617108175172       -2.66500700007503        2.49158241926924
H           -2.76149177144539       -2.32583472712993        2.33449740698469
C           -6.04161213524821       -2.91318022556248        0.41336900158539
H           -4.84165822105211       -2.76311866599074       -1.35372321517734
C           -6.05549348097407       -2.87565175272069        1.79776963552929
H           -4.88377650656642       -2.63468189006259        3.57174600106433
H           -6.95998361854113       -3.07450620912769       -0.13284284138756
H           -6.98439141728115       -3.00882747384518        2.33342142455390
C           -1.73165907277569       -3.80491324965100       -0.47571131075767
C           -0.55604085120186       -3.74638048084658       -1.31313829848842
H           -2.46797142048217       -4.48745675030470       -0.90733179028306
H           -1.45214050543738       -4.16109296483713        0.51959733202377
C            0.42239692111635       -3.62794344111029       -1.99187382331556
H            1.28141948086115       -3.55076562656349       -2.58779735151717
Cl          -0.89088935631526       -0.27511304021772       -2.05518763093506
Cl           1.06085054671745       -1.85270086240978        1.16419794873845
O           -0.38780531633228        0.62314105466988        0.89958530989109
O            1.34375471283834        0.01289395991469       -0.88302340281570
C            0.94225344078875        2.40527789381651        0.21414347860038
C            2.13322352134682        1.61333667549864        0.57496070391435
C            3.45976801738390       -0.29198194267858        0.05596987573519
C           -1.43005210030208        2.50277024528826       -0.00917663893807
C           -1.34239318110656        3.80418902775042       -0.54806722965573
C            1.07896710987967        3.66165498528020       -0.30051013444814
C           -0.06323752810101        4.41153686349329       -0.69939504795712
C            3.06022217675707        2.07201508329403        1.46447273126837
C            4.24994262050545        1.33494425436172        1.70643455549953
C            4.46016615431132        0.14335666154252        0.95705373121997
H            2.06458972637341        4.07868619004019       -0.42916065279252
C            0.03674211464641        5.69804301183850       -1.22780562731871
H            2.88643551021798        2.99959911346012        1.98539862448029
C            5.21979301894351        1.76602829526508        2.61480541379498
C            5.68435466095473       -0.53682128892937        1.11506666172925
C            3.61015730247601       -1.47639110456617       -0.79030787148448
N           -0.29217961039819        1.87353207249924        0.38169907158378
N            2.33873733018457        0.44682576700287       -0.08678924272779
C           -2.69815476735738        1.79860694664911        0.18308318118150
C           -2.48430832508735        4.54986563015029       -0.90687784038867
C           -1.09892307382771        6.39685466095428       -1.59233632978676
C           -2.35465439692453        5.81998672167989       -1.42070754879229
H           -3.46119219599093        4.11706373311911       -0.76295437511089
H            1.01406628345388        6.14195937205532       -1.34529482051692
H           -1.01338150900854        7.39201721769505       -2.00072688353208
H           -3.23892736826139        6.37793836901832       -1.69014774042261
C            6.39281344894489        1.05724072594572        2.77560889267887
C            6.62464775980669       -0.08498233174541        2.01226535402090
H            5.88232452023026       -1.41222304814491        0.51815033085924
H            5.03971083878840        2.66575139901644        3.18405185485580
H            7.13722445714803        1.39515245664134        3.48017040205773
H            7.55589268314380       -0.61998832794989        2.12308699945616
C           -3.54760540932939        1.57687066393460       -0.90060050510882
C           -3.07229254711058        1.34406666580609        1.44684045144557
C           -5.13221342109050        0.50570211831240        0.54842547008092
C           -4.28628867704146        0.71084142804808        1.62528640913537
C           -4.75276327721595        0.92797748520091       -0.71487246401783
H           -3.23695407064350        1.88255178106486       -1.88792256037495
H           -5.39846362120211        0.74848145143060       -1.56159771473163
H           -6.07795994416960        0.00619943618972        0.69305859311298
H           -4.57511428506223        0.37358368099957        2.60912199153614
H           -2.41448329642985        1.50214046531343        2.28792531351049
C            3.47753392174460       -1.36396240297275       -2.17392004781716
C            3.89998634517487       -2.72148860194915       -0.23212290573253
C            3.96285945506686       -3.70189827452060       -2.42248003427728
C            4.07026782135614       -3.82439946358629       -1.04587103852513
C            3.66078134840668       -2.47034020453636       -2.98206806767527
H            3.24061205262710       -0.40762856946589       -2.61523479380326
H            3.56280009157001       -2.37052052242963       -4.05367949162299
H            4.09962895508654       -4.56648733045342       -3.05591764959792
H            4.28126369823734       -4.78699772138642       -0.60466815368738
H            3.94360705244099       -2.82056571360815        0.84071305854773
