77
 energy: -129.328375165486 gnorm: 0.000420043594 xtb: 6.5.1 (b24c23e)
Si          -0.02820419177534        0.74643374810882       -0.65491667338630
O           -0.70002998798108        1.33888667034897        0.69593202826819
C           -1.29906801965339        2.58927824823820        0.93139568620731
C           -0.36519229351876        3.71887315250615        0.58181196405266
H           -2.21166233081078        2.66275657681856        0.32503236433423
C            0.99195338584110        3.59117634087158        0.84446674827834
C           -0.83954684605946        4.88147015048074       -0.00758102078547
C            1.86810607631229        4.60521398405526        0.50493751162501
H            1.36335725346299        2.68094661856798        1.29154152315365
C            0.03627113625143        5.90100838109765       -0.33528693575405
H           -1.89278882843627        4.97749139594812       -0.22691499109085
C            1.39099953720361        5.76364597209699       -0.08355199306033
H            2.92410767440831        4.48249378570224        0.69531078227566
H           -0.33820942143245        6.80041824155120       -0.80154059199825
H            2.07435701039971        6.55550062246201       -0.35347371523467
C           -1.65443445190787        2.64056525330870        2.43027186145843
C           -2.46056531145678        1.50413661109068        2.81999804374510
H           -2.18802128812255        3.57129699868155        2.63829265299159
H           -0.72475640964159        2.62687019314639        3.00504335464192
C           -3.10518083924809        0.54126963903956        3.12099974155881
H           -3.67726270120736       -0.29561636672046        3.39312127678635
Cl           1.74958972407789        1.10232155406725       -1.65331179781243
Cl          -1.12979515940002        1.99375967044609       -2.03955066903386
O            0.85298320170912       -0.30274483469772        0.58235199183997
O           -0.74562050424714       -0.66128775233984       -1.33277478517291
C            0.92611022202309       -2.47480417635566       -0.17486058073368
C           -0.52427477695230       -2.50028568506100        0.08245113069274
C           -2.64845727741711       -1.47160322299629       -0.25367212629054
C            2.93899331324396       -1.24918047092938        0.15175484528868
C            3.69591004338083       -2.34884405426444       -0.32146160518745
C            1.60562947579991       -3.55619606604689       -0.65655570811541
C            3.02009773415466       -3.51689560349738       -0.77478504159163
C           -1.06362190052307       -3.42203245708847        0.93219326054445
C           -2.45000365301717       -3.39052751182396        1.25122551155153
C           -3.24938547529145       -2.38292993484217        0.63874590591292
H            1.06416289523140       -4.44257128822782       -0.94445296345137
C            3.75415769778393       -4.59488648949011       -1.27673013806510
H           -0.42438192301398       -4.15865825226907        1.39132011703763
C           -3.03307502411328       -4.29743039682608        2.13583288148364
C           -4.63105780640846       -2.35925489204451        0.92360185312778
C           -3.39017473062414       -0.43103277822380       -0.96829464891915
N            1.59088470064345       -1.34843381192624        0.18418286676046
N           -1.31724968681659       -1.57403724181307       -0.50520465031819
C            3.54268813225437       -0.01858167886968        0.66426871758987
C            5.10497195310319       -2.35095407226117       -0.32599730553109
C            5.13253846085048       -4.54720102425793       -1.31369105319183
C            5.80213984552471       -3.42970230312056       -0.82025577188812
H            5.63473789166665       -1.50060068546654        0.07135857327505
H            3.22517452636805       -5.46743527190959       -1.62990401363377
H            5.69272310238142       -5.38115389460690       -1.70784091164902
H            6.88162599420260       -3.41113507525415       -0.82189961311967
C           -4.38550228157542       -4.23434854015352        2.41575396004199
C           -5.17815956914770       -3.26847108770578        1.80010838058906
H           -5.25457579925161       -1.62472754222169        0.43968393743415
H           -2.41315408517471       -5.05135343792801        2.59778472031978
H           -4.82881487051056       -4.93867495495664        3.10278486821329
H           -6.23704614314818       -3.23524399932603        2.00971072556131
C            4.47405056270777        0.69308200187992       -0.09301935747712
C            3.17834055822155        0.46653478596886        1.92052368334671
C            4.66875441544721        2.32825206635511        1.65329234975525
C            3.74150109398269        1.63016130914116        2.40901634145098
C            5.02851131145060        1.85741614271816        0.40051246395215
H            4.71915876519356        0.35373017611084       -1.08689173402581
H            5.73756866165042        2.40699982351278       -0.20042271591132
H            5.10491692453359        3.23868471717920        2.03784664078559
H            3.45342153609420        1.99560722666249        3.38408484054991
H            2.45651199533974       -0.07324486323176        2.51471861868659
C           -3.37711136971127       -0.39349727200277       -2.36211531850260
C           -4.10198697675404        0.54095584545516       -0.26696435472849
C           -4.76726759439622        1.56018057608403       -2.33568291747191
C           -4.78020516496779        1.53169055587212       -0.95125149908210
C           -4.06628612098931        0.59414317206263       -3.03737962767497
H           -2.82316967901713       -1.13978056301425       -2.91164122653594
H           -4.04446038534256        0.61800198479889       -4.11608332853887
H           -5.29142669563088        2.34067340991804       -2.86623855662162
H           -5.31254831734470        2.29156889412386       -0.39741231893326
H           -4.07801592085611        0.54067405729480        0.81267453535155
