77
 energy: -129.327899224779 gnorm: 0.000366726497 xtb: 6.5.1 (b24c23e)
Si           0.17678462733276       -0.62270383484071        1.50453628604092
O           -0.76549621252706       -1.75622182778495        0.84795489694276
C           -0.70528617507659       -2.48984805029142       -0.36297243247723
C           -1.90024847111898       -2.08970609709986       -1.19605318674716
H            0.21012813730038       -2.21619463582127       -0.89540426023774
C           -3.11359289928794       -2.76276257425628       -1.14763744104404
C           -1.79718756821042       -0.95257923785623       -1.99038949584113
C           -4.19409821653029       -2.31279466155777       -1.88903794157552
H           -3.22714392878853       -3.63811281122219       -0.52789221493235
C           -2.87711458935687       -0.49631767518795       -2.72369174974181
H           -0.85714934742149       -0.42187299924814       -2.02293106520838
C           -4.08101942248386       -1.17938125097911       -2.67595848808398
H           -5.13224660439879       -2.84667599479472       -1.84447111168910
H           -2.78262707550974        0.39210083313041       -3.33119150320015
H           -4.92736563135377       -0.82537299463397       -3.24589880874242
C           -0.63483945467460       -3.97889955251812       -0.00049051853888
C            0.64074453176006       -4.25619560448308        0.62724402800515
H           -0.75133535444819       -4.58295150224864       -0.90405124842318
H           -1.43102438638482       -4.21588674961179        0.70865450154662
C            1.70216158755331       -4.41348481678141        1.15570288631277
H            2.62420510546638       -4.57039667176961        1.62899262221896
Cl          -0.68944228901622       -0.93317754620968        3.39386410727224
Cl           2.11382294160996       -0.75552101517568        2.19334629590637
O            0.89421525459890       -0.26376587663816       -0.27358035966774
O           -0.35427862850313        1.00731156799716        1.51787905141847
C            1.37355082407420        1.98148554655720       -0.37972250909082
C           -0.08269556083371        2.16963847852999       -0.49247606986305
C           -2.26141392216765        1.62744793334361        0.31399087903906
C            3.11699344014433        0.37211377991604       -0.51554224616738
C            4.08361569410699        1.40612896149616       -0.53704435748833
C            2.26246991610456        3.01677889356211       -0.38721223511241
C            3.65734772584522        2.75937629467544       -0.42463368913919
C           -0.60362032841829        2.81750620067458       -1.57453491746858
C           -2.01169700823595        2.89399529166104       -1.76706994186410
C           -2.84730240297797        2.27195562849801       -0.79535768569357
H            1.89992494598051        4.03159715658033       -0.36602595658900
C            4.60513611684606        3.78716826553208       -0.40519997727732
H            0.06181510646304        3.24420060031434       -2.30779225577695
C           -2.57832799990273        3.52784528388701       -2.87161027627454
C           -4.24517243602710        2.35849662365433       -0.96663985580244
C           -3.04118414763737        0.95905367510636        1.35516410271822
N            1.81264468641425        0.69691619017034       -0.39758197469660
N           -0.90393628243771        1.62518516399908        0.43694774631484
C            3.44668585086918       -1.04364434075994       -0.69072075668271
C            5.45927237584658        1.15042525568455       -0.70046538086033
C            5.94925163813774        3.50139795687938       -0.51932721526599
C            6.36877746672590        2.18260150593098       -0.68409752717018
H            5.79352549154873        0.13598942279776       -0.84548287237271
H            4.26677661402413        4.80758276427376       -0.30440382290202
H            6.67600326072301        4.29899227257224       -0.49842182785569
H            7.42024072415759        1.96878342941985       -0.80363955293819
C           -3.95159501459942        3.56951756501174       -3.02852261039108
C           -4.77635039453601        2.99077512524929       -2.06737113980047
H           -4.89401788322219        1.93196544584950       -0.21912650761957
H           -1.92932747038806        3.98719243540642       -3.60268066595971
H           -4.38308130933148        4.05907802342605       -3.88801555181089
H           -5.84851342910936        3.04402918086729       -2.18397392736452
C            4.38318477877238       -1.67640703610183        0.12563706322500
C            2.81585713593517       -1.77788477077851       -1.69480437997261
C            4.05563540141495       -3.73248995408102       -1.07126420984120
C            3.11961514500954       -3.11255085506654       -1.88093407389693
C            4.68334785196401       -3.01043674121830       -0.06887128656547
H            4.83514267598557       -1.12663906554993        0.93595879758031
H            5.40669667812477       -3.49227168363565        0.57253742945053
H            4.28837787685305       -4.77660373295460       -1.21725220771429
H            2.62415737386163       -3.67046498660867       -2.66170199160616
H            2.09970121885232       -1.29370339137056       -2.34344123184233
C           -2.89577757040381        1.31029335629870        2.69651376438936
C           -3.93532461629572       -0.05479535240600        1.01035240065353
C           -4.50478777513192       -0.35491972565791        3.32107192013631
C           -4.65464178887516       -0.70937666794708        1.99022022334370
C           -3.62813688897272        0.65833863966423        3.66905719508885
H           -2.20675635852950        2.09308384773150        2.97437317096349
H           -3.50048594766804        0.93263649481830        4.70452496665386
H           -5.06275188233672       -0.87384657359462        4.08574324122802
H           -5.32863859465598       -1.50651728376305        1.71214864345122
H           -4.03327893261288       -0.34566994866374       -0.02400970503623
