77
 energy: -129.331107846641 gnorm: 0.000502544775 xtb: 6.5.1 (b24c23e)
Si           0.42597373888162       -1.32709489770225        0.04276338260483
O           -1.14397157496618       -1.33540530384842       -0.37035955015229
C           -1.85728361629431       -1.95005022678032       -1.42445533252791
C           -2.62517145634328       -0.83006805536881       -2.09278271963535
H           -1.13608325427927       -2.37534947455895       -2.13549640998466
C           -1.88243268162265        0.24223768066594       -2.57887278408640
C           -4.00884845304597       -0.77604403744607       -2.18138712447776
C           -2.50539189573828        1.35116209270367       -3.11750676758026
H           -0.80437159224718        0.19589796306235       -2.52339386643124
C           -4.63388461638868        0.33662493464832       -2.72253994229714
H           -4.61366564120215       -1.60066061624537       -1.83630534903104
C           -3.88772693639901        1.40573647710673       -3.18226863291577
H           -1.91321185772674        2.17505324002944       -3.48852307665028
H           -5.71246589948789        0.36717308970706       -2.78011133062878
H           -4.37886637831165        2.27516653786396       -3.59325560911880
C           -2.71612134550626       -3.09137238342004       -0.86589580873248
C           -1.88012629842778       -4.04759733399280       -0.16917261277833
H           -3.23248510912258       -3.58582567987494       -1.69270649183589
H           -3.44402719721941       -2.69192515107198       -0.15659649671990
C           -1.16561518580135       -4.79591543834418        0.43030106875725
H           -0.53210342465438       -5.45572969650471        0.94227097984379
Cl           1.23830810595482       -2.25886084713827        1.67016547991362
Cl           1.11057009472812       -2.78643035909995       -1.37551304062603
O            1.34836823480707       -0.16931765821529       -0.85503196631714
O            0.01727219633116        0.00801682790530        1.24709109334428
C            1.41955888231373        1.95045214833172        0.13128869160063
C           -0.05063602645550        1.99983551840063        0.09477825737456
C           -2.05446299949107        1.06911044827326        0.97536882014921
C            3.39988963782961        0.64941432089323       -0.11208376338566
C            4.17811068592996        1.70763106614109        0.39799871176125
C            2.13086269724691        3.00519850357446        0.62668093717876
C            3.54482507627487        2.93113490281019        0.75973522602437
C           -0.72883960180750        3.01615540904485       -0.51400483651942
C           -2.14068489278657        3.09920549838751       -0.40242628340209
C           -2.80192013674884        2.13571751174176        0.40908237769324
H            1.60791993231752        3.89036571248543        0.95084817638778
C            4.30935997551053        3.99117009315967        1.24661747634544
H           -0.18562020695381        3.76043025768717       -1.07319224810815
C           -2.87369959677049        4.11431640918792       -1.02217181936127
C           -4.17952961156679        2.30981700963263        0.64512763332420
C           -2.66145888492670       -0.00078140828957        1.75934437566947
N            2.06322885995589        0.83003289955244       -0.27880443490370
N           -0.71422865414011        1.04016642928573        0.78663463901710
C            3.96374725130822       -0.65450845390051       -0.47179640508353
C            5.58029838645366        1.61348472927628        0.52571903729213
C            5.67987058067922        3.86643568527551        1.37202672799837
C            6.30777673054108        2.67741422733075        1.00582255880082
H            6.07319362617298        0.70087462035991        0.23101076999623
H            3.81526450815240        4.91092757049497        1.52229110551894
H            6.26512839640349        4.69120020719204        1.74835189221724
H            7.38027551901480        2.59200546872832        1.09596081225675
C           -4.23590590302832        4.21268645401923       -0.82965723291713
C           -4.87776036396653        3.32211673010425        0.02603174958527
H           -4.68737314130445        1.65535705114842        1.33441651976613
H           -2.35483817006439        4.82516833644117       -1.64789109751755
H           -4.79822598147796        4.99400418253647       -1.31769197395558
H           -5.93531612378172        3.43056457408709        0.21463661980656
C            4.58688448536372       -1.42497369433301        0.50959231667551
C            3.86549175256905       -1.14827057708053       -1.77013182095494
C            4.99452823402117       -3.15485842026337       -1.10049596958244
C            4.38401903340648       -2.39072889159395       -2.07991223499372
C            5.09315318371472       -2.67025507211274        0.19361278693574
H            4.63562742661055       -1.05610445808379        1.52334490751012
H            5.55475054785683       -3.26910353515140        0.96424333248286
H            5.38345075709133       -4.13239691964367       -1.34246571010143
H            4.29425571650895       -2.76936745828130       -3.08625243341367
H            3.38011556321653       -0.55835685569751       -2.53250162344483
C           -2.08455493007130       -0.43378951676389        2.95560810638093
C           -3.83142013403787       -0.62370125193683        1.31696018290936
C           -3.81785728404680       -2.07167717265823        3.23169584960139
C           -4.40310948219829       -1.64515044166958        2.05044670404118
C           -2.65733078698929       -1.46190522532281        3.67785004618881
H           -1.18726022757166        0.03872608823295        3.32247393035683
H           -2.19247115555482       -1.79029735718516        4.59505920271992
H           -4.26080167993694       -2.87866371637510        3.79553585850704
H           -5.30626649665380       -2.12074203975281        1.69392910970850
H           -4.26025193005007       -0.32792528180287        0.37095634592535
