77
 energy: -129.325402825958 gnorm: 0.000400261292 xtb: 6.5.1 (b24c23e)
Si           0.08991752968089        0.84189757887777       -0.83638756230555
O           -1.45478748218273        1.17481389674260       -0.46381765750424
C           -2.14386911830183        2.35655707637055       -0.11080296158312
C           -1.63177283665636        2.87025446294270        1.21723868349263
H           -3.18148217828572        2.01186769477983        0.02484438487911
C           -1.43284842986012        1.93779792794775        2.23018906600683
C           -1.34340852739431        4.20321432320465        1.46986798796924
C           -0.93386364719130        2.32162493934782        3.45981562909687
H           -1.66368573017766        0.89850312279718        2.04135127842280
C           -0.85025972415868        4.58871878034997        2.70488931298828
H           -1.48516634418716        4.95123012805041        0.70714597473037
C           -0.63783305046578        3.65244734898247        3.70034590840941
H           -0.77619605650186        1.58102036495016        4.23109348333043
H           -0.62203418689374        5.62904767193929        2.88489365391732
H           -0.24298432827204        3.95691593920646        4.65872330072606
C           -2.13830819558034        3.39457054313233       -1.24205087632984
C           -2.44863236796763        2.78085204271484       -2.51458134174917
H           -2.88102333040061        4.16380679371686       -1.01517780480104
H           -1.14789995779871        3.84777559417004       -1.31533357365537
C           -2.66764257282428        2.26520735233368       -3.57130857666031
H           -2.85372981770456        1.82908370171305       -4.50582355560870
Cl           0.84508132048551        0.57690434069011       -2.72165025343506
Cl           0.93372327463091        2.81149786982267       -0.58827607589338
O            1.04165147913768        0.36253780687143        0.53612808435703
O           -0.42598658612618       -0.91864586602820       -1.02573712758925
C            1.23399203849571       -1.95537009232868        0.73928331555714
C           -0.21472467471406       -2.01041170003801        0.98704483008372
C           -2.37536815883675       -1.62037583209705        0.07995707619670
C            3.12639740812865       -0.62084621721467        0.18986938799703
C            3.94315127135139       -1.76811792694736        0.14208531529339
C            1.98551370013995       -3.09448437403571        0.72324134015541
C            3.37372935946841       -3.04371942833174        0.41973660686835
C           -0.73176678062234       -2.59028734659160        2.10998746373767
C           -2.13642645799276       -2.72842623816575        2.25965483847339
C           -2.96477681528178       -2.27088832571667        1.19663405064353
H            1.51213515589005       -4.04427464526974        0.91276208355236
C            4.17526147561852       -4.18482580605387        0.38016007967046
H           -0.06775709789386       -2.95557848977472        2.87626483039841
C           -2.70786435093996       -3.32857687137911        3.38435654066941
C           -4.34742749181099       -2.52988247855435        1.28023870475086
C           -3.17102323315411       -1.07882405090214       -1.01759253179862
N            1.81291283205578       -0.75317837144011        0.50487065592900
N           -1.02643202448693       -1.52394791698776        0.01582164104589
C            3.63081980017341        0.73301497162412       -0.05520806743332
C            5.32388067495941       -1.69485790314162       -0.13875574946588
C            5.52108002579795       -4.08510713284685        0.08390943336389
C            6.08885532285404       -2.83749664315293       -0.16794733777100
H            5.77073165358696       -0.73109826081725       -0.32329651899698
H            3.72896305076279       -5.14640011727111        0.58570774806812
H            6.13487659409795       -4.97213021901115        0.05425492253752
H            7.14403860596569       -2.76691841871772       -0.38529601049136
C           -4.07317062302353       -3.51598894229079        3.46083391991063
C           -4.88372957265109       -3.13485491496731        2.39525884576813
H           -4.98643767180783       -2.26855859120938        0.45248089063420
H           -2.06269539462083       -3.65277897400073        4.18720389458223
H           -4.50897828159182       -3.97745627929393        4.33358074785120
H           -5.94637191614501       -3.32062894860263        2.43934743171616
C            4.16748271570478        1.06825246290718       -1.29667068144482
C            3.55938047092876        1.69916581274815        0.94600598830709
C            4.55861944233866        3.30606568711155       -0.52577228109584
C            4.02817421694312        2.97663022330170        0.70986164197341
C            4.62269593682850        2.35199208842167       -1.52760332071553
H            4.18415328412632        0.33084722202221       -2.08508855316577
H            5.01587032995904        2.61083160270739       -2.49907699814603
H            4.90795394360097        4.31024172376037       -0.71258944740993
H            3.96293738406524        3.72091372524196        1.48889734656999
H            3.13189534323309        1.44566004286248        1.90493634904284
C           -2.86166524564635       -1.37941705852909       -2.34421921893424
C           -4.27423065537328       -0.26409919944872       -0.75036034075452
C           -4.74917151447757       -0.09958014328208       -3.09438631339161
C           -5.05131725273661        0.22313505711726       -1.78171316706876
C           -3.65088773033807       -0.89697842532982       -3.36939627008756
H           -2.01032457637174       -2.00242389210849       -2.56889279639618
H           -3.40554601623196       -1.14912591888923       -4.39049598235124
H           -5.36562088706809        0.27626688432251       -3.89722058424242
H           -5.89505216341677        0.86083167298775       -1.56189630701654
H           -4.50132458484909        0.00367748198947        0.27183317560896
