77
 energy: -129.324819710118 gnorm: 0.000996764539 xtb: 6.5.1 (b24c23e)
Si           0.21276688760030       -0.66340082904978        0.44017611805103
O            1.46322954218339       -1.68122560167172        0.61511987812153
C            1.86785174619224       -2.87356858753709       -0.00832722036121
C            3.28245177932512       -2.72590430686110       -0.50555114977784
H            1.19597988919657       -3.10588297622501       -0.84162784486420
C            4.25556487885025       -2.19462241984434        0.33055462249360
C            3.63786149008403       -3.16103292567146       -1.77411491195796
C            5.57135086800594       -2.12585907676094       -0.08782347949743
H            3.96915126550563       -1.82621068058749        1.30375109614306
C            4.95395306325229       -3.08283810046784       -2.19530447160122
H            2.88116217716914       -3.56514383615823       -2.43137185051881
C            5.92449456098503       -2.57520204119054       -1.34933668219145
H            6.32456315400349       -1.72632323634861        0.57533863604953
H            5.22264022238448       -3.42458649052396       -3.18444676487981
H            6.95361340904026       -2.52616689822179       -1.67525886204793
C            1.80734029367235       -4.01919341160116        1.02271889589241
C            0.45673034222129       -4.20441069599033        1.50285567556164
H            2.17046782630682       -4.93724360971869        0.55326341358168
H            2.45786660207418       -3.76654629672459        1.86386115689266
C           -0.67226819106043       -4.29872371215783        1.88708434479054
H           -1.65749184057368       -4.40139530214537        2.22963161907836
Cl           1.01368892656404        0.37747968879841        2.11692259488722
Cl          -0.87142642354743       -1.88690834973407       -0.98336164037209
O            0.48702663998865        0.52385666488982       -0.77187107025965
O           -1.31683862919255       -0.03493586599576        1.05780104704904
C           -0.89839719321097        2.30060038123224       -0.21787599673819
C           -2.06214236080734        1.45089178818162       -0.54679512939704
C           -3.38739640311877       -0.44378842695035        0.02786218782523
C            1.47166025093112        2.54462820846964       -0.14669520731781
C            1.33497200943732        3.87379461909732        0.31560032337014
C           -1.08302732898458        3.57250224992897        0.23578134910148
C            0.03204114030931        4.40307096487584        0.53502738604573
C           -2.94011069963684        1.82463945848541       -1.51938376017616
C           -4.10399283944671        1.05004562571080       -1.77763309888135
C           -4.34345829800205       -0.08531370026433       -0.95349623910725
H           -2.08384270208297        3.94487614137069        0.38346327958957
C           -0.11959307064741        5.70457934925018        1.01475254459337
H           -2.74848900948996        2.71467169653375       -2.09669573821539
C           -5.01582324058633        1.39361418312619       -2.77681322727250
C           -5.55427965305145       -0.78631125464218       -1.12831046227107
C           -3.56474770605225       -1.58518340951776        0.92124662832067
N            0.35526399454311        1.82618180666462       -0.41203238595238
N           -2.28891859283811        0.33161942970198        0.18599901545377
C            2.76468094743205        1.91641043493250       -0.40349225999934
C            2.44263977895697        4.71750830972022        0.53678935381218
C            0.98635761225324        6.49428478749376        1.26009572214437
C            2.26293668643359        5.99873479174770        1.00503218425693
H            3.43433013817366        4.35232849304169        0.32480001613285
H           -1.11476008512627        6.08598928109690        1.18823286254325
H            0.86213315927150        7.49848170612179        1.63520953517811
H            3.12285068507969        6.62972161531629        1.17292507129327
C           -6.16846089822933        0.65555473976579       -2.95753759901891
C           -6.43945689581894       -0.42101271758262       -2.11657084602748
H           -5.79017765293589       -1.60785675208457       -0.47176007107010
H           -4.80811612590416        2.24898496620565       -3.40226372836590
H           -6.86703363224542        0.92274997477753       -3.73544090783408
H           -7.35859999054410       -0.97436394008159       -2.23824208164888
C            3.75346987352681        1.90886691129879        0.58137252721555
C            3.03438798300546        1.33388945252014       -1.64255963501426
C            5.27284803625732        0.83970617551665       -0.93817041368101
C            4.28177003355316        0.80254924592863       -1.90443749923153
C            4.99773667285700        1.37550153090916        0.30973991294254
H            3.51931802314216        2.28888596831299        1.56344817420438
H            5.75754393284217        1.37629187960438        1.07722186105806
H            6.25262272771940        0.44373201743552       -1.15636102521382
H            4.48442144239744        0.36133000277998       -2.86886538016653
H            2.27067050421369        1.31866714258536       -2.40537726853309
C           -3.45891609227407       -1.42114312685781        2.30330846473756
C           -3.87678134643306       -2.84608785522471        0.40858395817003
C           -4.05096494573410       -3.72353077050309        2.63629109653575
C           -4.12094998174332       -3.90349618681483        1.26244504490013
C           -3.70486437265065       -2.48399990192088        3.15092112534369
H           -3.20024309918481       -0.45601735053075        2.71129162193378
H           -3.62788830034092       -2.34407239812758        4.21897363049882
H           -4.25003893403990       -4.55074364461453        3.30282175532554
H           -4.35714575615030       -4.87593121592502        0.85535365521253
H           -3.88553090525517       -2.99427078059820       -0.65992047688403
