57
 energy: -99.551783224937 gnorm: 0.000917022772 xtb: 6.5.1 (b24c23e)
Si          -1.36330652212234       -0.55770002601380       -0.69442082263655
O           -2.27568507002350        0.78495158767278       -0.73798925801678
C           -3.07154569140978        1.29142199452801        0.31345855297394
C           -4.18111241169844        0.33253421965328        0.66246588996732
H           -2.44201555702927        1.43627082197622        1.20147233264978
C           -4.90585411200148       -0.28618798750570       -0.34715575237524
C           -4.48419088813342        0.05660244622926        1.98816231762888
C           -5.91556568632584       -1.17716548721387       -0.03315596215851
H           -4.65554790155466       -0.08912309505027       -1.37815756741931
C           -5.50106030528110       -0.82791901841151        2.30081981621901
H           -3.91625068207142        0.52810798056015        2.77818957192892
C           -6.21704442624958       -1.44725435449823        1.29084067460688
H           -6.46404281055229       -1.66372882405194       -0.82544609554537
H           -5.72733906502708       -1.04079426824578        3.33533072625747
H           -7.00414551131910       -2.14489863182143        1.53609324892043
C           -3.66419326454540        2.63451049212210       -0.14499526883937
C           -2.63732624214630        3.62001591250268       -0.40141917748877
H           -4.34615348956873        2.99987815838218        0.62791811392461
H           -4.22973586748183        2.46119851363486       -1.06358025009387
C           -1.76328364322333        4.41179481066002       -0.60560952879727
H           -1.01468933536562        5.11722074262124       -0.81019828718162
Cl          -1.75193295130774       -2.11104355497349        0.57860626520166
Cl          -2.26722535489605       -1.35108251345548       -2.43916196169017
O            0.15091759987044       -0.60597510583661       -1.51481978985768
O           -0.30573724508276        0.12587498834190        0.79386042152113
C            2.07066641162176       -0.71720480665679       -0.16214317808437
C            1.86849335458422        0.66698166661139        0.14415527843648
C            0.36325061128291        2.32754215726288        0.91521905890685
C            1.18771054525957       -2.64654180890483       -1.25694575052774
C            2.20969543688323       -3.43030653705858       -0.83504869720465
C            3.14318386483215       -1.51003080290350        0.35702570587414
C            3.22937886073577       -2.88052556433132       -0.00467126343794
C            2.88147678884139        1.66471550100648       -0.01759016078721
C            2.60952991714431        3.00058289700114        0.37459379436830
C            1.30937441410810        3.30098366146392        0.85974888727301
H            1.06441419810732        4.30557234405011        1.16068315366223
H           -0.64310599788241        2.51602601435287        1.24908651178802
N            1.14848428088202       -1.33751926793884       -0.94919922447961
N            0.63470750258037        1.05399310221084        0.57966642394566
H            0.36963200289949       -2.99242139851772       -1.86802832299385
H            2.23786098764025       -4.47371534675906       -1.09876568362850
C            4.11488746093074        1.38713041626743       -0.63084857766135
C            3.60278502575135        3.97909243253461        0.23818216291422
C            4.82229096417378        3.66596239275120       -0.31564000865943
H            5.58361535096871        4.42404823465412       -0.41792600093223
C            5.06585405017835        2.37095431699015       -0.77180271935715
C            4.06728778315641       -1.00785015730140        1.28894069420609
C            4.27605550349950       -3.66289587980031        0.49417684825380
C            5.20046170471439       -3.12914761823037        1.36462358412966
H            6.00531938261336       -3.73953618190332        1.74431203884703
C            5.07819535668178       -1.80414506540774        1.77676719881886
H            4.33917517941925       -4.69739315431838        0.19231482745208
H            5.77889917653986       -1.39780462977427        2.49024979377147
H            3.98056906815895        0.01199961310107        1.62838872670880
H            4.31397077086127        0.39288252088336       -0.99828198769055
H            6.00739210590616        2.13877933413125       -1.24568300023512
H            3.38882437147295        4.98517481272816        0.56659767662318
