57
 energy: -99.559237208773 gnorm: 0.000617749083 xtb: 6.5.1 (b24c23e)
Si          -0.56982232701326       -1.91850841856261        0.12814679140683
O           -1.80961853479104       -1.30030205422769       -0.69950867058424
C           -3.20309072921381       -1.40371509215673       -0.54989121892391
C           -3.78309391478682       -0.01754721830135       -0.41381891245538
H           -3.43228621871317       -1.99413619962447        0.34642056055145
C           -3.15636106155243        1.06425011456263       -1.01824744088791
C           -4.94612320285542        0.19091638672179        0.31601545248233
C           -3.67897327791219        2.33854098369667       -0.88714143910355
H           -2.25016441002081        0.89707162330701       -1.58067482843955
C           -5.47337313595208        1.46415020306189        0.43840688186253
H           -5.43356863502710       -0.64760640301789        0.79210410793547
C           -4.83963811835352        2.54072535932474       -0.16012892276659
H           -3.17850688137714        3.17439349331007       -1.35485555915119
H           -6.37927773568981        1.61795697529487        1.00628214642382
H           -5.25058560498153        3.53466119315087       -0.05889545150713
C           -3.78280380546758       -2.12256079637772       -1.78333011407714
C           -3.29673760635110       -3.48478479314941       -1.83640052937476
H           -3.46809317994761       -1.58484677599671       -2.68128995760290
H           -4.87403210730708       -2.11435369539278       -1.72311803809439
C           -2.85852674759830       -4.59778800357356       -1.83355167257616
H           -2.47912077701055       -5.57538760148446       -1.83913558514845
Cl          -1.65724983590897       -2.79392665505148        1.77137545012811
Cl           0.39812026802225       -3.68874922330434       -0.29256831512162
O            0.43133644864090       -1.05957349565927       -1.15703331299446
O            0.15013412413243       -0.82644236858830        1.27613001650952
C            2.13811694902045        0.22631041756304       -0.24062272618331
C            1.11419989035348        1.07897624117402        0.29018092312281
C           -0.96724697875555        1.17503185078536        1.45342240662682
C            2.60815292085393       -1.73778515889738       -1.49792772922078
C            3.95010619127966       -1.54526067582846       -1.40851971768217
C            3.53907590463751        0.44240120237430       -0.05607248645315
C            4.46212107270701       -0.44504929336458       -0.66864326817188
C            1.04486757513910        2.49066635732759        0.06546346257783
C           -0.04942470385811        3.22502274772944        0.59580515889261
C           -1.06294290943545        2.51906228323349        1.30549493656192
H           -1.91653511398636        3.04796661779627        1.69355850163203
H           -1.70144842190086        0.57128383413247        1.96193412992377
N            1.74184166258942       -0.87377159648349       -0.94077447456478
N            0.09450599264955        0.49790549665118        0.98317777021148
H            2.15219442527614       -2.56479617117500       -2.01648639144781
H            4.62800916086821       -2.24017775538199       -1.87442437163564
C            1.97110244725913        3.16954692428784       -0.74468025305126
C           -0.13033285525874        4.60373506242738        0.37341831014408
C            0.82083449398778        5.25203911690078       -0.38292054696113
H            0.75165422087766        6.31630515365937       -0.54791617030024
C            1.86114823703242        4.52501148327265       -0.95689749950971
C            4.03741941668243        1.45318681983597        0.78391467004846
C            5.83712400355500       -0.23630518633295       -0.49797462918253
C            6.29779387747378        0.79211414501807        0.29052784073636
H            7.35841549546436        0.94537171400422        0.41845942456620
C            5.39194112237894        1.62386931430427        0.94853069881595
H            6.52763899807575       -0.90572654050733       -0.98838616474083
H            5.75650626963891        2.40505445757626        1.59793592483272
H            3.34741190486260        2.09605316859562        1.30740119139269
H            2.77495418877673        2.62088618262643       -1.20873164465190
H            2.58623011256123        5.02655441800032       -1.57958879229529
H           -0.95885754376729        5.14886683073177        0.80004207747284
