57
 energy: -99.552101299342 gnorm: 0.000383323787 xtb: 6.5.1 (b24c23e)
Si          -1.10786518729530       -0.39082541559491       -0.34453737540750
O           -2.67065162719843       -0.37317076074570        0.11021968319190
C           -3.84628146853063       -0.12717478673605       -0.60917230787756
C           -4.97474740350461        0.18517972641318        0.33941189432420
H           -3.68337600664564        0.71676804541412       -1.29307515543442
C           -4.97529796537299       -0.32545737104862        1.62965900987053
C           -6.04995777134591        0.95187421563339       -0.09145172178648
C           -6.03620425929113       -0.06837503958905        2.48019035036723
H           -4.13290805748730       -0.91358339517478        1.95916070392801
C           -7.11320449017002        1.20122009858887        0.75736204841989
H           -6.04971540216148        1.35541966134321       -1.09431666516976
C           -7.10849897457585        0.69126977412599        2.04517040462929
H           -6.02722131845318       -0.46580713478700        3.48470621603003
H           -7.94648779415108        1.79724853342951        0.41444820698034
H           -7.93861442920572        0.88820291175268        2.70781679045824
C           -4.20906900483134       -1.38129897607356       -1.43683092283634
C           -3.18460610795628       -1.65714308556988       -2.41748264674384
H           -5.17002126523178       -1.21952495599597       -1.93059905649532
H           -4.29421642665938       -2.22986326350800       -0.75236227515058
C           -2.29366860625396       -1.84969423304193       -3.19364443518861
H           -1.53399315103726       -2.02153696294598       -3.89590886598659
Cl          -1.30217244606038        1.24835549453684       -1.72667759563515
Cl          -0.92954162795028       -2.32770658281706        0.56733270797730
O           -0.25038422259001        0.39179109347335        0.91342947785261
O            0.33244532856209       -0.72052913166416       -1.32750351083824
C            1.94295568359413        0.84938510471177        0.19666195928170
C            2.19881424851103       -0.56013846641910        0.05887936775855
C            1.59062940062356       -2.62158279759098       -0.96838482874421
C            0.37895927184114        2.58896648685202        0.66628648489709
C            1.29759428851713        3.56377516096297        0.45922856392914
C            2.94001110090557        1.83838451106068       -0.08375292483978
C            2.62257057477291        3.21384948466080        0.07308900213130
C            3.29272210640033       -1.21552441412808        0.70597650624270
C            3.53981957513428       -2.58732614063568        0.43725035716179
C            2.65901805766501       -3.27279337301088       -0.44407848847591
H            2.81822206408740       -4.31583024453862       -0.65818939535145
H            0.85394122455301       -3.08581432950295       -1.60198015484360
N            0.70892123380302        1.28914965711456        0.57128415361511
N            1.38939139302084       -1.31406040857987       -0.73265989146031
H           -0.64851717212499        2.77319617460581        0.93325858233346
H            1.02162750239802        4.60021021013982        0.55271309620461
C            4.08267211983941       -0.56995191540593        1.67376160439722
C            4.60988853143109       -3.23275664920531        1.06967749355468
C            5.39645287707457       -2.56247129932965        1.97756067951734
H            6.21753023352753       -3.06771330607572        2.46265695566229
C            5.11603172420537       -1.23289228541504        2.29218404113554
C            4.20370505135210        1.50469515612373       -0.60275146316255
C            3.59321115232413        4.18497149141165       -0.19685867512446
C            4.84122932191420        3.82462084544376       -0.65248330940032
H            5.58400803184876        4.57973344072797       -0.85898734476220
C            5.13432976565179        2.48049066200764       -0.87451599284025
H            3.34051563969893        5.22436888083057       -0.05111207934925
H            6.09860432965700        2.20050863514402       -1.27048232461988
H            4.44557983941121        0.47144365074162       -0.79334401335455
H            3.87013291566120        0.45492275577935        1.93433926822939
H            5.71089304348623       -0.72109252978003        3.03322830099049
H            4.79771855461476       -4.27069360811799        0.83990250980910
