57
 energy: -99.557937481728 gnorm: 0.000641809053 xtb: 6.5.1 (b24c23e)
Si          -1.47470545002825       -0.15992706681573        1.37263834280993
O           -2.32649343994318        0.98170574180693        0.60206058528188
C           -2.61066869148291        1.12246981679400       -0.77326121980591
C           -3.47336243553028       -0.01343955423825       -1.25435401767555
H           -1.66779483828054        1.12683407644610       -1.33247770188002
C           -4.51446842408622       -0.47460767197586       -0.45992795950558
C           -3.22798091515645       -0.62133864278320       -2.47712658702836
C           -5.29763552405971       -1.53348694463226       -0.88173081900712
H           -4.69139094746778       -0.01277397152778        0.49985581796489
C           -4.01531389929448       -1.67751362507814       -2.90090800766841
H           -2.41194934194507       -0.27032155853343       -3.09318289269615
C           -5.05059399377289       -2.13567185886333       -2.10384009520074
H           -6.09951598965082       -1.89124611767327       -0.25342098222298
H           -3.81527078854989       -2.14853053657821       -3.85263880645498
H           -5.66012821617347       -2.96447243506719       -2.43267197249883
C           -3.31650917682561        2.47734930273256       -0.95724436424534
C           -2.38738939053954        3.56415508632874       -0.73869062298507
H           -4.13528875339298        2.54337783527348       -0.23767423476139
H           -3.72289589583710        2.53556705762308       -1.97038284893572
C           -1.56470434198192        4.41376039479224       -0.55600454546686
H           -0.88079965531894        5.19456523497962       -0.40725790561266
Cl          -1.93219926350924       -2.16244098882340        1.56537239226706
Cl          -2.30108583856163        0.39894072207935        3.22553004974616
O           -0.60230956934798       -0.56037875811353       -0.28460848744095
O            0.10009021852470        0.27018144520191        1.93302056368401
C            1.69210351550702       -0.79358578676624       -0.01296795749346
C            1.73697062523433        0.61140493251809        0.27224949901339
C            0.74934544937212        2.42615144223218        1.47192762002861
C            0.31622020687064       -2.64678259616374       -0.59042168876744
C            1.38215371525587       -3.48381438040968       -0.68789903554112
C            2.84078343010250       -1.64500583444423       -0.02679242780362
C            2.68775268283408       -3.00739669754024       -0.39344967744311
C            2.59090726434496        1.53774625274098       -0.40802014291081
C            2.52894156322149        2.91624833836952       -0.07151234034840
C            1.56950429305974        3.33737983820239        0.89457339487309
H            1.48553938171936        4.38061548056727        1.14666532464714
H           -0.01329607634220        2.66792219871223        2.19453557823862
N            0.47566612118951       -1.35064502006454       -0.27024199194209
N            0.86154453133695        1.11610366672727        1.18940823746926
H           -0.70303791030275       -2.94638827970158       -0.77141860997212
H            1.23587877706784       -4.51527668932749       -0.96040991198173
C            3.43110641616913        1.14993896560129       -1.46566390547540
C            3.36833673582724        3.82610984484189       -0.72219758651483
C            4.22499607755082        3.40752977579385       -1.71661777819288
H            4.87078760560453        4.11636477809579       -2.21167299841167
C            4.23495858011291        2.06920317718611       -2.10109910337879
C            4.10670872667324       -1.20139601504264        0.39252742369993
C            3.81174746233799       -3.84436081127917       -0.42227421865385
C            5.04929178014468       -3.36890008150379       -0.05784159410497
H            5.91028483942824       -4.01922702192552       -0.08313544224906
C            5.18901276611542       -2.04897199720969        0.37167164653953
H            3.68428875394935       -4.87248162773738       -0.72598775307198
H            6.15407650961772       -1.69088422439078        0.69613979127899
H            4.22591478632009       -0.18637971750736        0.73747039413163
H            3.44489313333901        0.12025409343526       -1.78534661010135
H            4.87531890565877        1.74756301880680       -2.90826629899318
H            3.32696691289158        4.86643299382840       -0.43634451722972
