57
 energy: -99.562445127036 gnorm: 0.000121927846 xtb: 6.5.1 (b24c23e)
Si          -1.38023799448426       -1.15077894567498        0.30006324006051
O           -1.99774743489887        0.34777489049963        0.14865490758651
C           -3.06640419450567        0.83043541130307       -0.62681314675537
C           -4.39233778950895        0.56784075511230        0.04060615676672
H           -3.04977497475802        0.34083178020273       -1.60738318552921
C           -4.48057618232649        0.47972225567277        1.42215584664925
C           -5.54142562323973        0.42407738620596       -0.72513871208151
C           -5.69949361587643        0.24371288404767        2.03215485466120
H           -3.58498944078778        0.57364121452823        2.01776656273799
C           -6.76109175649873        0.19602113259238       -0.11454543788595
H           -5.47430643540488        0.47747565962485       -1.80207362741099
C           -6.84270633814925        0.10495111110568        1.26502129590660
H           -5.75444654247683        0.16502043472140        3.10793797242361
H           -7.64959500300963        0.07936152724382       -0.71749123940961
H           -7.79454412240110       -0.08144753530296        1.74017189017609
C           -2.84779367762753        2.34547355280196       -0.81191344224081
C           -1.57672087284329        2.60002519102476       -1.45515750463089
H           -2.86322890154518        2.82865862960654        0.16894976412074
H           -3.66198774497665        2.74907131525020       -1.41810563706133
C           -0.50654207826986        2.75823140544599       -1.96677283071973
H            0.42135710267352        2.91931909138664       -2.42872449298740
Cl          -1.87430564990907       -2.49079991721622        1.76862667448426
Cl          -2.53455712714142       -2.10059378549778       -1.23029327907626
O           -0.00327751685079       -1.39805007470074       -0.70665730266305
O           -0.23729126426321       -0.45783214991466        1.56865348476282
C            2.07581440300653       -0.81452112831587        0.26020151050288
C            1.58941512551309        0.51197573158848        0.50503815916365
C           -0.06684996724880        1.83726312925439        1.57150728921345
C            1.55227527640038       -3.04923559153730       -0.39638864179009
C            2.80362523214947       -3.49322813850189       -0.12703619276006
C            3.40172335978685       -1.23784254757907        0.60224407033113
C            3.78065148182529       -2.58855254685921        0.38112562101221
C            2.24901331592598        1.70173510774933        0.06279919214691
C            1.73938765832186        2.96499110142670        0.45944048537682
C            0.56610259449414        2.99753723558296        1.26001345438354
H            0.16187265811713        3.94281738287396        1.58017530952296
H           -0.98213287283889        1.78304001110448        2.13662462592334
N            1.21956145651437       -1.75417175791992       -0.23600726095054
N            0.43053042594875        0.64686319853107        1.20160968029229
H            0.75862930606623       -3.67255044765197       -0.77637293008146
H            3.05631433064883       -4.52988615686725       -0.27097354410514
C            3.33198096561920        1.66481965780762       -0.83191793647590
C            2.37677278491149        4.13376044553170        0.02235189956381
C            3.46324393105233        4.06732077211749       -0.81870365272891
H            3.94633889546676        4.97232027591205       -1.15438914490105
C            3.92752415197004        2.82827279655656       -1.26036136686688
C            4.32204666909245       -0.38884755554937        1.24066388775973
C            5.07353937027704       -3.00960465737562        0.70822379857980
C            5.97300766227104       -2.13915257312823        1.28300283807137
H            6.96842855527661       -2.47230016223325        1.53309681864999
C            5.58296239262661       -0.83306421775681        1.56809905532333
H            5.35006394979529       -4.03449137306593        0.51177797837250
H            6.27242466962727       -0.16185076926161        2.05709918813286
H            4.03649032327012        0.62192328013462        1.48342411728434
H            3.69247134893362        0.71255950837408       -1.18843903338457
H            4.75686848877289        2.78163705261332       -1.94964593558353
H            1.98908923549754        5.08780171637112        0.34621884813507
