57
 energy: -99.560978660994 gnorm: 0.000572494018 xtb: 6.5.1 (b24c23e)
Si           0.27716695010750       -2.22351935137665       -0.66210249350925
O            1.74622863876753       -2.23093072919638        0.01282434758260
C            2.24706213494977       -1.64385742100542        1.19751623228512
C            2.89897671225283       -0.32874387935740        0.85498685100858
H            1.42333029290475       -1.47977928606207        1.89644747357132
C            3.84051442431360       -0.27181418931561       -0.16560718300947
C            2.55951996228200        0.83501784343233        1.53062318640910
C            4.45095706044859        0.92673834139132       -0.48664362982404
H            4.08082947377246       -1.17177218427694       -0.71118097205177
C            3.16849567542485        2.03513500622570        1.20704976358832
H            1.81555508895378        0.79939134273938        2.31366200989623
C            4.12042797925755        2.08123850768414        0.20324712177778
H            5.18789277764913        0.95944663442617       -1.27570648526169
H            2.89698976210385        2.93593246558756        1.73796467920046
H            4.60080253766269        3.01682615739031       -0.04256961703508
C            3.25250345802915       -2.62438243376390        1.82520700496738
C            2.55979675821754       -3.78001527228389        2.35382927155577
H            3.79594775792435       -2.11583000224864        2.62632208287626
H            3.96042986172177       -2.94457870597636        1.05789713069266
C            1.93762026217250       -4.70856060636373        2.78007979293832
H            1.41140294433410       -5.54022284086454        3.14243630203723
Cl           1.02465328409281       -3.23232002533749       -2.35187171283728
Cl          -1.23344504960002       -3.57343205999505       -0.29569989690393
O           -0.35948892533728       -1.15751335192631        0.78422334393667
O           -0.22156191639618       -0.90269304737858       -1.66717115992423
C           -1.75311114028096        0.55492434299619        0.07691658029058
C           -0.60648611727772        1.14245100706993       -0.55240620526116
C            1.25647651148739        0.82154625093350       -2.00795389228980
C           -2.58809176397495       -1.27200854998690        1.35153703168542
C           -3.83758374592943       -0.74120063314064        1.40372064366543
C           -3.06179200263399        1.13125111732419        0.04656254930279
C           -4.11850614410888        0.48070340984269        0.73550014563030
C           -0.18146163370201        2.48998768345991       -0.32469303539125
C            0.94487338457291        2.99396785943314       -1.02543210372789
C            1.65048786043777        2.11331603869689       -1.89518916734943
H            2.51592105840627        2.46615207024299       -2.42880796675015
H            1.75537455547990        0.08775839480500       -2.62038172417917
N           -1.58901619286608       -0.63639662151336        0.71436155148428
N            0.16001013333588        0.36836103706812       -1.37364754535803
H           -2.31284132938725       -2.20700275876496        1.81055990290979
H           -4.62272612968515       -1.25908369957714        1.92799723609255
C           -0.78834166326597        3.31092173741219        0.64055728283056
C            1.35830467173188        4.31246624090580       -0.81223112278865
C            0.71311106423577        5.11262156824763        0.10522111615515
H            1.03990317415610        6.12873703089080        0.26520715180652
C           -0.34778918017901        4.59868444347427        0.84665270515970
C           -3.36212270174590        2.27164056209740       -0.71779529026356
C           -5.40531552377373        1.03537217938619        0.70809745379703
C           -5.66087481909864        2.17820287190290       -0.01229555690830
H           -6.65523933938275        2.59731478663357       -0.03172423686199
C           -4.63776345593048        2.78399999220488       -0.74173175393405
H           -6.19435110296193        0.54041867282999        1.25394693844714
H           -4.85018054841486        3.65917462628711       -1.33657352521492
H           -2.58361391423874        2.74406132326305       -1.29572924909372
H           -1.60594592713468        2.92552755178821        1.22897937804484
H           -0.82782924175229        5.21254344252371        1.59361975251911
H            2.20155929788134        4.68821610910940       -1.37161948840836
