57
 energy: -99.561178416519 gnorm: 0.000539516682 xtb: 6.5.1 (b24c23e)
Si          -1.47093719745232       -1.68855933755563        0.22328635980592
O           -2.35516859135091       -0.36893943378674        0.58574914491279
C           -3.37069695641879        0.27640198354814       -0.15895100611525
C           -2.71064754550986        1.14102521219561       -1.20538563663872
H           -3.99088433487125       -0.48342492772393       -0.64667107071441
C           -1.83054612283062        2.14503717720785       -0.82136335464855
C           -2.90029039061342        0.88936529528818       -2.55679284192232
C           -1.14590058001005        2.88341741342196       -1.76897724936326
H           -1.67053195993036        2.34434315553893        0.22772625912335
C           -2.22169371730665        1.63411428308062       -3.50602502989535
H           -3.56535256111626        0.09611524735307       -2.86211859633952
C           -1.34116498471015        2.62867695854787       -3.11563016231016
H           -0.45667048802987        3.65427594784116       -1.45317700471371
H           -2.37326528648790        1.42859380973832       -4.55535875866106
H           -0.80474158268062        3.20193518839131       -3.85777835722166
C           -4.23954402450614        1.08850532896248        0.81298508482313
C           -4.86715865114488        0.21280645199918        1.78010923753053
H           -5.00371711831967        1.61757051514908        0.23760900567885
H           -3.62064204068692        1.82134838602613        1.33679671244828
C           -5.34802095686590       -0.54822704691838        2.56769303471397
H           -5.78780995301602       -1.20412622091309        3.25773150732709
Cl          -1.53487103753580       -3.46186533859675        1.24587378216476
Cl          -2.62835503433301       -2.39731334997274       -1.42953808655609
O           -0.23094841974568       -1.33975212791397       -0.93048396072370
O           -0.29296330478640       -1.19607113898292        1.54085519053061
C            1.82435620467462       -0.60565516086715       -0.02039227443755
C            1.14417872204160        0.43222763584880        0.69711735941509
C           -0.50747196424624        0.95369109198155        2.32398067110629
C            1.63588831927368       -2.60775004483743       -1.30771504288672
C            2.97565910463287       -2.80743983593622       -1.31911918429955
C            3.24681359467949       -0.78365292299195        0.02620096344295
C            3.83318737357518       -1.88340258468083       -0.65484298885129
C            1.49216125115486        1.81773646875558        0.61481565406331
C            0.86219452301194        2.74468638587895        1.48445749966459
C           -0.13671058861882        2.26068355782930        2.37431018330841
H           -0.62828012633015        2.94056781146153        3.05047760800013
H           -1.30010705273016        0.52491165319134        2.91570071882218
N            1.09451900076482       -1.52889133693901       -0.70993763438400
N            0.11347709240800        0.08239697980139        1.51323868054960
H            0.92319647110452       -3.26009443374823       -1.78663667350075
H            3.39386863497650       -3.67038233235863       -1.80868425855751
C            2.37182762881916        2.30616416688151       -0.36526979429416
C            1.19997763028171        4.10213999495428        1.40679332340968
C            2.10159091027443        4.54689906276708        0.46757745916895
H            2.35412594792844        5.59485867772461        0.41200075098363
C            2.67049643699861        3.64701000725768       -0.43326749341880
C            4.08601517954048        0.03698646135221        0.79934409931172
C            5.22014673362304       -2.06232501707464       -0.62201393759139
C            6.02351977622605       -1.20633859370543        0.09766746527069
H            7.09278520087297       -1.35030052065076        0.11657592889053
C            5.44648273077024       -0.16930648071119        0.82657426515680
H            5.64830625523959       -2.89155938491941       -1.16467715068951
H            6.06985718535477        0.47724345190507        1.42520113840608
H            3.66118273581997        0.83701225398019        1.38352867358187
H            2.80907692796664        1.61963244335878       -1.07309161881617
H            3.34588602635105        4.00608705861595       -1.19466854178533
H            0.72922797381724        4.79492405394910        2.08824594772630
