57
 energy: -99.477971068387 gnorm: 0.000739877077 xtb: 6.5.1 (b24c23e)
Si           0.22996135698375       -2.69649013907356       -0.57329710345175
O            1.36428455677114        0.23555437914946        0.30674019429857
C            2.40393951454079       -0.05767911863416        0.85455938733862
C            3.52968537921918        0.86577602982600        1.03190420145917
H            2.54776183871054       -1.05407730571650        1.30204549931942
C            3.44314901233843        2.17126013298654        0.54625724937745
C            4.68476119633472        0.45165382461349        1.69346475318980
C            4.49819249307395        3.04549615763258        0.71619279968773
H            2.53700739890892        2.47560685049414        0.04237830412278
C            5.73813393975733        1.33036734687346        1.85977946459831
H            4.74508880632889       -0.55907449747567        2.07006234925020
C            5.64626839031674        2.62524952829353        1.37136323711712
H            4.43001580200339        4.05578821754728        0.34044219002017
H            6.63391613943226        1.01048913985571        2.37100321750011
H            6.47154858482533        3.30930170200255        1.50356120486909
C            3.77959452723975       -1.00765881558877       -1.39894712087430
C            2.77258378437219       -1.80509248494832       -1.58880233091430
H            4.65467460143273       -1.32655036929209       -0.85715200362283
H            3.80358394668107       -0.01194419776387       -1.81232818669149
C            1.74390333475705       -2.56888300369325       -1.73915075408580
H            1.68673282276084       -3.21765517899439       -2.60267041016217
Cl          -0.95204771044746       -4.27837575289807       -1.09591311291330
Cl           1.39673722412678       -3.50926163650195        1.02606816586668
O           -0.56653581720494       -1.84053689912598        0.68443237850717
O           -0.74108147757542       -1.61659971742067       -1.77659045775972
C           -2.14610737181079       -0.19477107232308        0.01273284098174
C           -1.15645347116261        0.44951114494884       -0.79663064127388
C            0.40087590461783        0.21088364389878       -2.57192223422579
C           -2.74641604302271       -2.10504961936485        1.31024664870747
C           -4.01506128310238       -1.66779305575701        1.49567245908979
C           -3.48761210476787        0.29614085167330        0.14093073228439
C           -4.42751396667722       -0.43279801166280        0.91629062206832
C           -0.81199868110323        1.83349058180759       -0.68897146069704
C            0.11444188500156        2.39096627589645       -1.60626231373649
C            0.69248282347086        1.53682884804548       -2.58245705114311
H            1.39612693591645        1.93217721788291       -3.29619861331007
H            0.83993423109870       -0.50248021249126       -3.24977578445998
N           -1.84551507089672       -1.37825932832528        0.62182907727038
N           -0.48859346308987       -0.30516224264545       -1.70765705094164
H           -2.36540080413507       -3.03029789341965        1.71261683303621
H           -4.71847094605013       -2.25849380282952        2.05740303618550
C           -1.27605661174320        2.63796166207719        0.36486588692459
C            0.47271841768076        3.74136313774982       -1.49317067731720
C           -0.03118540343740        4.51753887681020       -0.47576709365869
H            0.25459617639320        5.55516026704856       -0.39083603551234
C           -0.89244588596687        3.95460372878517        0.46577347931052
C           -3.94288095512023        1.43216511678479       -0.55016740457763
C           -5.73442637208146        0.04463979581052        1.05508905641052
C           -6.13556078173289        1.19529470970288        0.41267820591117
H           -7.14559121388030        1.55797752818248        0.52596404666895
C           -5.23925344966089        1.87326488890456       -0.40910115780318
H           -6.42728494724833       -0.51202337348733        1.66805658697346
H           -5.56332894605498        2.75097246458804       -0.94746431395325
H           -3.27046793147067        1.96502127753865       -1.20288910623544
H           -1.93076543751447        2.21165556986344        1.10849151794899
H           -1.25457586319561        4.55574938935448        1.28598429832937
H            1.16536998505960        4.15634744280604       -2.21094850528675
