57
 energy: -99.557191686564 gnorm: 0.000568709603 xtb: 6.5.1 (b24c23e)
Si          -1.37357023960969       -1.12279144312280       -0.53647818720887
O           -2.82461200153997       -1.10026607451373        0.23732650475805
C           -3.89254391597578       -0.19248767958193        0.13311724792963
C           -3.57055714351210        1.11909385570954        0.80191166938197
H           -4.10164237519023       -0.01742768024057       -0.93079704421506
C           -2.93153293799076        1.13181841747061        2.03529132880428
C           -3.90341617059987        2.32354936297767        0.19527356467598
C           -2.62303199027661        2.33217194083478        2.64984776670679
H           -2.65849093959505        0.19384128174619        2.49369390873933
C           -3.60287987612497        3.52484359668190        0.81602253052615
H           -4.39192538943197        2.31719444529328       -0.76862420222934
C           -2.96019623510692        3.53115367235950        2.04302210591861
H           -2.12053357645866        2.33328717569767        3.60613814795263
H           -3.86594741423517        4.45690375605837        0.33723651299200
H           -2.72157518845988        4.46840064238604        2.52416587607638
C           -5.12766103003111       -0.83467880764206        0.79338453571344
C           -5.56065335242798       -1.99616177387635        0.04737992902697
H           -5.93389552127562       -0.09712370579044        0.83466084976863
H           -4.86306554927058       -1.13331216896644        1.81049771450099
C           -5.88682769060985       -2.94894381512035       -0.59839418099639
H           -6.18228572620538       -3.78955788952351       -1.15127295427898
Cl          -1.98458666390343       -0.32077350593388       -2.35052851201747
Cl          -1.04557478645076       -2.97443362284072        0.33774102239803
O           -0.59647501982271        0.07433915985571        0.43614443479936
O            0.23925541413190       -1.30659309298409       -1.47177486230681
C            1.58754668868597        0.67781894701571       -0.24838460205058
C            2.01774938589498       -0.68407749258143       -0.11095425475964
C            1.71924314470484       -2.93800496047459       -0.80341378704676
C           -0.23254995685308        2.22255632053070       -0.27620856153468
C            0.56757976333013        3.26256135430965       -0.61259363207023
C            2.47072939065511        1.73098514245260       -0.65612819896471
C            1.96257121628886        3.04824886069968       -0.80919851256815
C            3.14654684295465       -1.07972146101746        0.67338417503905
C            3.57793417822259       -2.43079467326790        0.63543532951535
C            2.83826958322908       -3.35132692882113       -0.15383683394389
H            3.14375482258877       -4.38247238999006       -0.20433969180488
H            1.08657042276871       -3.58917843366356       -1.38220007485725
N            0.27086480111510        0.99106163259475       -0.06947208788354
N            1.33210423576187       -1.65145288579853       -0.77733505561603
H           -1.29643699554144        2.30859886042581       -0.12574995976683
H            0.14801493921041        4.24285989498929       -0.76104151675810
C            3.79384140844854       -0.19222004876495        1.55047483477465
C            4.69053043805392       -2.82075082082460        1.39370944982552
C            5.33681637954114       -1.91829777567584        2.20487903580069
H            6.19252551265281       -2.22595927485284        2.78619327008179
C            4.87060574378913       -0.60645776086509        2.29782223398060
C            3.81199953068399        1.49642334833618       -1.00519581564281
C            2.81946640644239        4.08385918887728       -1.19453087102025
C            4.14532935448086        3.83380409840054       -1.47208543017074
H            4.80040818877974        4.63849838242324       -1.76829099897297
C            4.63047400032384        2.53060354005797       -1.39909713529219
H            2.41869830231546        5.08249773319439       -1.28177832368687
H            5.65746488029315        2.32521642254793       -1.66035813432251
H            4.20593167255775        0.49365808152811       -0.97005389837492
H            3.43687542573676        0.82216808399597        1.63692941534287
H            5.35595590888098        0.08778751795991        2.96673524742586
H            5.02230670397594       -3.84642755067692        1.33674467790611
