57
 energy: -99.553293062809 gnorm: 0.000500234315 xtb: 6.5.1 (b24c23e)
Si          -1.17804763879887       -0.29366824935925       -0.63564078885291
O           -2.55257694198929        0.13287505775171        0.16042510880657
C           -3.84207414877135       -0.41352548493801        0.13924884791328
C           -4.67305581613018        0.22578922523251        1.22372829882675
H           -3.77370698256189       -1.49729285488780        0.31521482388830
C           -4.48728150270069        1.56056743062206        1.55448272049770
C           -5.66228476404138       -0.50335366232761        1.86994305263205
C           -5.27476782130624        2.15686378388305        2.52292923585252
H           -3.71394148217294        2.11912667152228        1.05090482614868
C           -6.45438314125755        0.09528832395121        2.83334473588665
H           -5.80916248863632       -1.54396921582313        1.61690186239051
C           -6.26180394649828        1.42656598852642        3.16235398271762
H           -5.12105979926170        3.19562695656311        2.77757130961231
H           -7.22099300882468       -0.47960616448281        3.33175098659131
H           -6.87867612683449        1.89236395527635        3.91687369767623
C           -4.52999037159660       -0.18120689121379       -1.22574668913689
C           -4.01398403102911       -1.07665686668612       -2.23624794425100
H           -4.35284482835455        0.85378282465122       -1.52808813381244
H           -5.60526348800405       -0.34207979336471       -1.11028393745817
C           -3.56498710403228       -1.84433430301106       -3.03678826892518
H           -3.17732113017988       -2.50362681951765       -3.75403722095509
Cl          -1.41339984331406        0.98892856864700       -2.23902241493725
Cl          -1.37578255142930       -2.34916118730191       -0.33185031992826
O           -0.21634283395443        0.37182223850066        0.61603355062888
O            0.46450643741283       -0.65371245181967       -1.54363069339061
C            2.05052064331767        0.75104177633432        0.09681319516641
C            2.23237653150160       -0.66559572557116       -0.03636182973500
C            1.54638270702247       -2.64807465419055       -1.15161500189130
C            0.48754335776442        2.54039354213307        0.32847938389484
C            1.45057261527173        3.48518094490526        0.20394279198814
C            3.10378469604944        1.70514030405075       -0.07847005937922
C            2.80605152185177        3.09162142740282        0.00408333890308
C            3.22215989890845       -1.41229947172060        0.67521935537201
C            3.38440521342127       -2.79342023308687        0.39319360362345
C            2.52294328300809       -3.38929660153165       -0.56588961933870
H            2.62403930876220       -4.43482612239036       -0.80306070400327
H            0.83829637565865       -3.04440550823006       -1.85995294032067
N            0.79183427512888        1.23049927025110        0.31401171155254
N            1.41075695490299       -1.33657330066313       -0.88978495192267
H           -0.55894960284231        2.75567788263640        0.46843407782041
H            1.19461223906253        4.53070427226203        0.22700002066519
C            3.98420340423550       -0.84445267459041        1.71092384531878
C            4.35705705959152       -3.52886941879323        1.08445946998365
C            5.12254053683378       -2.93509720566773        2.06007273378129
H            5.86829670056271       -3.50838607683697        2.58936442349870
C            4.91826658477382       -1.59397344064063        2.38595943419915
C            4.41297964319033        1.32872918549966       -0.42471529223367
C            3.82810144046649        4.03155478825601       -0.16062075526945
C            5.11514344935907        3.63032151748769       -0.44391316827240
H            5.89789477780733        4.36252384263962       -0.56915606810786
C            5.39716457752503        2.27533746505722       -0.59745688535812
H            3.58727484943975        5.08025287881492       -0.07209565567102
H            6.39585523708958        1.96161326222638       -0.86062394584665
H            4.64970392896276        0.28593533599538       -0.56143716964542
H            3.82767143843195        0.18884675731155        1.97833364726401
H            5.49406974141794       -1.14197627648846        3.17916323112654
H            4.48506296579286       -4.57349982325476        0.84381515440374
