57
 energy: -99.559213910116 gnorm: 0.000988086009 xtb: 6.5.1 (b24c23e)
Si          -1.27825721203480       -1.65697611825084        0.38566074602565
O           -2.27815310521589       -0.82440321777896       -0.56855689274208
C           -3.48004629482915       -0.13466071360902       -0.32982593376205
C           -3.19397296609558        1.34748563211878       -0.32558052815477
H           -3.89583744244377       -0.44446494703567        0.63740910222495
C           -2.20443686560420        1.85871459432434       -1.15597558890579
C           -3.90285074943036        2.21030590048469        0.49896213018025
C           -1.92295654807573        3.21269046432236       -1.15864393873908
H           -1.64887081547454        1.17895575241900       -1.78422463049119
C           -3.62546647607253        3.56618041887179        0.49032517807787
H           -4.66954328330160        1.81617828580167        1.15022795311399
C           -2.63517248162587        4.06944698665438       -0.33668147560416
H           -1.14632409901533        3.60035197520257       -1.80221131007639
H           -4.18229531575139        4.23198027589815        1.13337947790642
H           -2.41879329579221        5.12779361560499       -0.34094104321133
C           -4.47737227520875       -0.49317445525371       -1.44692757282321
C           -4.83858955219106       -1.89249859962620       -1.36706429420271
H           -4.00805658880370       -0.28955305173461       -2.41257961578229
H           -5.36940648958716        0.13005210469789       -1.34294926109896
C           -5.10424924915387       -3.05382479640555       -1.26042907892727
H           -5.34306352324808       -4.07187872527811       -1.18217946779420
Cl          -2.59649183138742       -1.90596882114614        2.07703883268845
Cl          -0.95811251410362       -3.67559524850029        0.18557996968674
O           -0.07096418975689       -1.29955255750159       -0.96372250967958
O           -0.18087961553262       -0.82927950390061        1.45025677986666
C            1.99857338116758       -0.59914992969722       -0.17695615571568
C            1.34300374756779        0.57340593226644        0.32513514294768
C           -0.45233659833865        1.44236033181527        1.63564843813192
C            1.73536990515975       -2.69820329339300       -1.26724618650143
C            3.06872892763746       -2.95497220884946       -1.22415288998858
C            3.40342792832273       -0.83975582716231       -0.05436828275727
C            3.95113865207419       -2.02718771145894       -0.60713149299177
C            1.74766859942865        1.91137808785023        0.01576828240145
C            1.05151763464973        3.00316706612278        0.59821114182185
C           -0.06148014177117        2.72583018511324        1.44257640632737
H           -0.61355130364203        3.53412895936939        1.88996487896204
H           -1.30310122123286        1.15508688626890        2.23225255115724
N            1.23145708285497       -1.55319252464014       -0.77482986396890
N            0.23611629395583        0.41601623803663        1.10526039367567
H            1.00674391423110       -3.36492009940265       -1.69788327560992
H            3.45626492745767       -3.87149436572726       -1.63563623876914
C            2.75733216399803        2.18828047792106       -0.92138441037832
C            1.44133122006205        4.31193837074579        0.29632822234852
C            2.46746546206706        4.55365462578730       -0.59026248632658
H            2.76123577373303        5.56670461501842       -0.81852418676000
C            3.11038852692647        3.48627422878644       -1.21289449463938
C            4.25268930222936        0.01372848646315        0.67062744791373
C            5.32703035032728       -2.26909197337702       -0.49816300569864
C            6.14314592871013       -1.38970211071348        0.17388486999288
H            7.20176758367354       -1.58336188683691        0.25434754579862
C            5.59665042640701       -0.25692348895748        0.77657135871739
H            5.73198806432577       -3.16524953217994       -0.94353523212825
H            6.23271534718245        0.41120560748502        1.33684335627369
H            3.84341326756798        0.88780234623375        1.15185966931526
H            3.25659429534093        1.37323576897467       -1.42080326885751
H            3.88908412287065        3.67681369107857       -1.93563477165307
H            0.91401221479974        5.12985679667491        0.76350750918263
