57
 energy: -107.989446958067 gnorm: 0.000576331445 xtb: 6.5.1 (b24c23e)
Si          -1.10657560322899       -0.51064009009643       -0.25135636365814
O           -2.68884108377902       -0.75802297258632       -0.05798758683180
C           -3.84104156406733       -0.30019335473800       -0.72072218419472
C           -4.89747921278810        0.06559831615023        0.28888015565002
H           -3.59255092314975        0.57394234858073       -1.33302887946610
C           -4.97404473541926       -0.60389759795310        1.50240674868678
C           -5.82452052722920        1.05738940846920       -0.00366247671245
C           -5.96224941823093       -0.28015814064642        2.41503791292307
H           -4.24472653013963       -1.36648841322819        1.72853041046831
C           -6.81683928493732        1.37403013350803        0.90664131773186
H           -5.76289208505255        1.58486931014752       -0.94515058080352
C           -6.88703375834775        0.70648379979727        2.11810744542767
H           -6.01138839142774       -0.80132519565022        3.36007506402825
H           -7.53368201636983        2.14772044607341        0.67245369953588
H           -7.65956818356829        0.95788496260387        2.83016135409953
C           -4.35317483923612       -1.43127685534487       -1.63756857949173
C           -3.33800349309031       -1.78835912686836       -2.60423245071315
H           -5.26092043014085       -1.09609163642600       -2.14503496859167
H           -4.58800218348785       -2.30174793931153       -1.01880928260835
C           -2.44333351411177       -2.06053503250737       -3.35064275014422
H           -1.67602755980748       -2.30593057567465       -4.02192283367788
Cl          -1.27861229398228        1.03243904862943       -1.76126490711745
Cl          -0.82066438326822       -2.19225281639471        1.04657575618387
O           -0.30999754915910        0.48328399773260        0.91605242718719
O            0.33743897991480       -0.91501849379461       -1.17374399694896
C            1.87174100616964        0.91612055836780        0.14738553799311
C            2.17628109030965       -0.49101064865567        0.20613083997730
C            1.67420491469643       -2.69428246197211       -0.53316916786140
C            0.28096995189845        2.66317644420817        0.43321935076213
C            1.16026613135443        3.63579838812134        0.09185116881249
C            2.83564443801031        1.88878680016972       -0.26420519877735
C            2.48111918481045        3.26488108329951       -0.28293404803027
C            3.27851931709161       -1.01111216550985        0.95091605731366
C            3.56849487306876       -2.40075442660619        0.89482514675288
C            2.74092766478476       -3.23986319050591        0.10033628525975
H            2.92725287780429       -4.29703373150388        0.02547903414125
N            0.62237960078599        1.35763249998680        0.48182681867043
N            1.40525183566009       -1.37209176582828       -0.49395031776459
H            0.84555912547698        4.66479210614821        0.08033443722598
C            4.03852973947934       -0.20520816014263        1.81870134057447
C            4.64332416336433       -2.91335645716349        1.63166855974749
C            5.39652937771151       -2.09206211438857        2.43783611733754
H            6.22108999370081       -2.49552687346525        3.00482728963213
C            5.07827057732314       -0.73766533100961        2.54235936072122
C            4.10666470182086        1.52530572088557       -0.74666383957238
C            3.42053460102659        4.21860095603298       -0.69129463680384
C            4.67351430316336        3.83527823299973       -1.11134872490419
H            5.39149814985679        4.57660014090663       -1.42590589015602
C            5.00570476541576        2.48170604273338       -1.15518145862732
H            3.13937528474517        5.26035446244622       -0.67990634059052
H            5.97509430617866        2.17963814342148       -1.52047165723022
H            4.37645443820184        0.48293772776840       -0.79952902072893
H            3.79643996319304        0.84083859622390        1.91812899390047
H            5.64845916737203       -0.10318660136850        3.20320504263726
H            4.86201223125812       -3.96780414532756        1.56359250701721
F           -0.95630370060782        2.93354673421166        0.81575370417895
F            0.87461250898685       -3.40483109495530       -1.31063474256712
