57
 energy: -107.990876737106 gnorm: 0.000630755935 xtb: 6.5.1 (b24c23e)
Si           1.70620505410013        0.34748504265634        1.17569001914099
O            3.17630729067958        0.51247877223514        0.47041716906733
C            3.80805200946980       -0.31559931558474       -0.48657656041435
C            2.94141994293240       -0.42319113430230       -1.71704709569478
H            3.93296481869547       -1.31565943729904       -0.04736652427012
C            2.72569013509423        0.68424038918042       -2.52790787035206
C            2.25871595865118       -1.60163648703891       -1.98722341908878
C            1.83380089995830        0.61559732734358       -3.58282590203097
H            3.22915689931227        1.61373334901567       -2.31164758061561
C            1.36463604216609       -1.66944521293665       -3.04167939690440
H            2.41227405379783       -2.46455883293453       -1.35522095267792
C            1.14673824374220       -0.55937954866006       -3.83935465427617
H            1.66473608538761        1.48699447279544       -4.19966818310413
H            0.82889490076800       -2.58842165073953       -3.23328187961752
H            0.44017433041629       -0.60770013020485       -4.65601715868468
C            5.19376569294178        0.27615405903203       -0.78726423972505
C            6.09626095492383        0.06554191063988        0.32427764323980
H            5.08957254683383        1.34877119028075       -0.96146492186557
H            5.59684429384837       -0.19920673471031       -1.68596449598594
C            6.81883781707673       -0.13145163193742        1.25723180371408
H            7.45908757385531       -0.28872198444418        2.07291408725134
Cl           1.94534060280035        2.00428549936458        2.30507444671068
Cl           1.82637056577143       -1.68671380445042        1.59041140700405
O            0.78083190423760        0.44377983711859       -0.28068549368847
O           -0.07921829978566        0.34015964862036        2.05579247772661
C           -1.58067155763772        0.55183638892291       -0.18607373197100
C           -1.60079459573248       -0.65140822540094        0.59032502023501
C           -0.98659726285282       -1.70015563035240        2.61954961193218
C           -0.27252305726807        2.35287239965452       -1.02999870852224
C           -1.35057890814336        3.03705416002958       -1.47761709853378
C           -2.76456072601408        1.23326110748322       -0.61482383000190
C           -2.64789043653241        2.47590743591852       -1.29424514197972
C           -2.33410528637073       -1.82140850199019        0.22388245103912
C           -2.42375990399234       -2.90436666138358        1.13573752585282
C           -1.75632547307401       -2.79336298915288        2.38242340349571
H           -1.81579811789582       -3.57462534393723        3.12028917701756
N           -0.36846780672936        1.13906340353066       -0.44341888765055
N           -0.88409767646211       -0.66836366629904        1.75181866649286
H           -1.22294025127230        3.99998926777548       -1.94073945936288
C           -2.89407336603191       -1.97260034348443       -1.05720291631759
C           -3.14439193139982       -4.05206470928382        0.77546018377833
C           -3.72121646258724       -4.15327834641655       -0.46765370448678
H           -4.27059350498136       -5.04127125633545       -0.74008375610439
C           -3.57564018264317       -3.11739916709621       -1.39250727352608
C           -4.05656279863910        0.77018365370298       -0.30889511846263
C           -3.79666633616015        3.14606539768589       -1.72389091349433
C           -5.04901641196764        2.63671997695617       -1.45898333675707
H           -5.93074589167950        3.16020718440307       -1.79425926127937
C           -5.17260683775929        1.45746486258541       -0.72883532807812
H           -3.68478708210856        4.07719248030431       -2.25789791748788
H           -6.15268754475316        1.07915972085374       -0.48221977133755
H           -4.17712702316874       -0.13260050239696        0.26695471165680
H           -2.77605323392797       -1.18151714517334       -1.78093894628297
H           -3.99629860749055       -3.21957912739757       -2.38100991259379
H           -3.22401817609898       -4.85900618605227        1.48750744290883
F            0.96177692409920        2.81693129994517       -1.17263132186626
F           -0.33523579039941       -1.54190953062534        3.76172041683288
