57
 energy: -108.000200169256 gnorm: 0.000970881542 xtb: 6.5.1 (b24c23e)
Si          -1.25795705719100       -1.19660797078169        0.00354788072247
O           -1.87368888893362        0.30590513132363       -0.10999893044595
C           -2.98013340494581        0.77699194841500       -0.84446083213192
C           -4.28192074450171        0.34033331431071       -0.22482024049806
H           -2.91546020588488        0.39135106256228       -1.86863228478621
C           -4.40752786465261        0.25890058018760        1.15479913769720
C           -5.36774275964404        0.02731722678681       -1.03056280610040
C           -5.60577551245021       -0.13622555236895        1.72227381364524
H           -3.55912268035476        0.48894966498078        1.78122735664940
C           -6.56714677864984       -0.35996687746693       -0.46109806104822
H           -5.26601354262315        0.07547070700984       -2.10489602502350
C           -6.68823774725628       -0.44245317125346        0.91595597808802
H           -5.69253131746694       -0.20618462002702        2.79648313793329
H           -7.40683591766128       -0.60634346879765       -1.09423802477078
H           -7.62361998220900       -0.75150950478135        1.35910951174327
C           -2.88619891716986        2.31484137785640       -0.86868358580869
C           -1.66540547136488        2.73880502124700       -1.51873880963541
H           -2.90644901744429        2.68438734951612        0.16025930704368
H           -3.75146450243306        2.71292573058773       -1.40372047664954
C           -0.63235035806528        3.03274234690949       -2.04621933776610
H            0.25960304519264        3.31704483181170       -2.51926183113600
Cl          -1.74145878353889       -2.57460549787182        1.42240124744786
Cl          -2.29976532563331       -2.09079817193955       -1.60416540685619
O            0.17833602215782       -1.33224774552265       -0.94783864382193
O           -0.12963584510662       -0.49142473950084        1.35948580997323
C            2.19913605117504       -0.55027855862179        0.02685206954875
C            1.57758736181264        0.70575711243985        0.31924706473189
C           -0.15192302401570        1.81347980748804        1.48985648051406
C            1.89695834710190       -2.82567236317972       -0.60464489670052
C            3.19058020875816       -3.15021229488924       -0.37285157984857
C            3.57286200622354       -0.83323443959271        0.31758832758557
C            4.08232356666084       -2.13959717262783        0.08750441311391
C            2.08815766772997        1.97385877861111       -0.09787578500248
C            1.47360588728880        3.16245172819176        0.37313842573495
C            0.34460306799625        3.04841762392152        1.22490959727747
H           -0.14597145337797        3.92198079309295        1.61790575374826
N            1.41753491112923       -1.56936184016897       -0.45472515146915
N            0.42828300600757        0.67749225304476        1.05249030218567
H            3.52407358754703       -4.16343389371822       -0.51539388483242
C            3.12381495041340        2.08254468299542       -1.04240853189876
C            1.96860387455571        4.40703380510059       -0.03921295068945
C            3.01056365550805        4.48344201826313       -0.93272962225621
H            3.38055959358040        5.44509805757112       -1.25358193315713
C            3.57437079225749        3.31572106612241       -1.44958768466323
C            4.42755995776445        0.10940329087927        0.91661447847493
C            5.42408351585283       -2.42312273560151        0.36079600810967
C            6.25179567129011       -1.46020963865894        0.89356577303056
H            7.28578258927858       -1.68674223975057        1.10185912987779
C            5.73979477639386       -0.19951715044971        1.19193344778005
H            5.79601094927059       -3.41534160173024        0.15651830996229
H            6.37494910331935        0.54283690788009        1.65017354224551
H            4.05029054763580        1.08648648287574        1.16999984583352
H            3.55871463501816        1.18587792244786       -1.45506619456096
H            4.36525920118922        3.38117649982110       -2.18086390875834
H            1.50265028322042        5.30262544330922        0.34169143524394
F            1.01647102388811       -3.71615241860909       -1.03488539979579
F           -1.22277075464717        1.64564210034281        2.25406723417231
