57
 energy: -107.995285047389 gnorm: 0.000918468548 xtb: 6.5.1 (b24c23e)
Si          -1.68511470881417       -1.54472822078610        0.25748638474784
O           -2.31436658687698       -0.09301644733627        0.59201983310256
C           -3.07803480314449        0.96613156512836        0.05901160477801
C           -2.19337141014747        1.83211245481565       -0.80805497754577
H           -3.38831974901873        1.53955955794858        0.94582424138991
C           -1.51425045141131        1.28462497717928       -1.88964611885982
C           -2.01522454949859        3.17632211807475       -0.50787335327632
C           -0.65419431297130        2.06573077999566       -2.64056210405524
H           -1.65217356782191        0.24387154829556       -2.13785112172133
C           -1.16821398213025        3.96047134469962       -1.27101958608423
H           -2.54602699409033        3.61160523278018        0.32716106248253
C           -0.47759344228560        3.40395346877919       -2.33323725112584
H           -0.12507962890098        1.62787205474992       -3.47403233593809
H           -1.04280315633593        5.00626857553238       -1.03236757586275
H            0.19239312396791        4.01285969607988       -2.92199263874941
C           -4.34700807680005        0.52440055528839       -0.68630936763798
C           -5.17830733612521       -0.28502268663439        0.17849458928687
H           -4.08089763782541       -0.05464636050666       -1.57111567656426
H           -4.88726981211870        1.42431405125598       -0.99348081791941
C           -5.81637480449815       -0.95224484766388        0.93859432346690
H           -6.39416097459042       -1.55022433948047        1.57731887338867
Cl          -2.08004559638852       -3.11313358002349        1.47168392968508
Cl          -2.79363316433785       -2.17848111921273       -1.41730948690326
O           -0.33047446494077       -1.48255523088299       -0.81869972317162
O           -0.34926102945737       -1.09564267883422        1.62438367184530
C            1.76768941909250       -0.74428811517798        0.01346703644308
C            1.13230511751454        0.38983441989871        0.61162324557075
C           -0.44795647936121        1.13166982311282        2.20436468062627
C            1.47012800171095       -2.91557976146310       -0.91906471185635
C            2.79554982757448       -3.18876994420712       -0.91994317493990
C            3.18066734328305       -0.97367925003587        0.05217197442214
C            3.70333138710552       -2.19728436633455       -0.44743320457633
C            1.50235150085383        1.74684823404920        0.36410341497266
C            0.91447664834515        2.78171407278097        1.13459129065762
C           -0.06080407208721        2.42978081935435        2.10214076317869
H           -0.52345138882333        3.17633691006218        2.72455354879553
N            0.96827602692139       -1.72669708004561       -0.51351050734968
N            0.11321974967943        0.13756373264649        1.48496013800355
H            3.14669061705439       -4.14877006837740       -1.25629172028432
C            2.36837848508335        2.10030073510172       -0.68486759745493
C            1.28699941190977        4.11264695425679        0.90234674231012
C            2.17663575917043        4.42458499504341       -0.09721469018625
H            2.45727657979951        5.45174729335006       -0.27255780046381
C            2.69854138860276        3.41526294626512       -0.90726455831583
C            4.07765255950357       -0.07342713775847        0.65425207186829
C            5.08183725497858       -2.42887830486721       -0.42174580116519
C            5.94128836075785       -1.50011956805539        0.12187034621825
H            7.00389271115721       -1.68575444132289        0.13665653131374
C            5.42894513879923       -0.33196815933313        0.68096769530377
H            5.45925775597620       -3.35497334697710       -0.82728282686968
H            6.09563996106139        0.37744918969777        1.14652224712367
H            3.70366331908690        0.83037157320692        1.10617998915383
H            2.77073140271645        1.32685666403537       -1.31975711751678
H            3.36424365706630        3.66959328567700       -1.71751804296323
H            0.85192442533692        4.88722838893487        1.51498634308031
F            0.57175692178138       -3.78636666079500       -1.35535688016957
F           -1.37643367508667        0.75273369803449        3.07060919631592
