57
 energy: -107.993808124186 gnorm: 0.000729750924 xtb: 6.5.1 (b24c23e)
Si          -1.29020137965083       -0.43936488582190        0.51746162260787
O           -2.07699036791392        0.55646334323970       -0.47811044707253
C           -3.34300283043492        1.15881982078171       -0.32736188451025
C           -4.45152283612202        0.14276874974312       -0.41685067487540
H           -3.38439798595607        1.66083732336708        0.64725226826867
C           -4.32154005057892       -0.95548485523307       -1.25534262832958
C           -5.61096162727518        0.29950183401784        0.32951855113972
C           -5.33642777229251       -1.89165419838380       -1.34013178003446
H           -3.41258320963885       -1.08168462191684       -1.82451033909722
C           -6.62830101887893       -0.63323170168739        0.23750968039498
H           -5.70791037596664        1.14611311265565        0.99334728871322
C           -6.49263663557945       -1.73049137268980       -0.59625980127930
H           -5.22211830926399       -2.74908145941809       -1.98682875607256
H           -7.52560245108167       -0.50836393994726        0.82562994837359
H           -7.28478255073354       -2.46201915698683       -0.66103386201971
C           -3.47582797224960        2.20132847745777       -1.45222899474523
C           -2.42796063016606        3.19447693143948       -1.36233554481723
H           -4.45407308638222        2.68235289982480       -1.37826624313538
H           -3.40126034208512        1.68646883221797       -2.41322542111124
C           -1.53660079196428        3.98753038976548       -1.26893089253065
H           -0.77240995662183        4.70310329460625       -1.20813811794572
Cl          -1.29263743657917       -2.50211968030397        0.63410664744483
Cl          -2.49326070868298       -0.22246825944985        2.26064403642366
O           -0.11742394060160       -0.53708561153459       -0.96754973582077
O            0.04701929689688        0.22347944508703        1.38926367597585
C            2.08491704856525       -0.66948357084516       -0.20572377678455
C            1.98712297055613        0.71694261412466        0.14060914989742
C            0.60316006860152        2.43678429368135        1.03148952411665
C            1.06080726795898       -2.49134397484485       -1.31839125712762
C            2.15680281145765       -3.28379368812538       -1.19909564056962
C            3.23599138566637       -1.47974957719513        0.03716277962620
C            3.27400943728848       -2.80659876849896       -0.46481628188576
C            2.93670620625577        1.70871100434385       -0.26215335047899
C            2.68874530905985        3.07432110032737        0.04394379722801
C            1.47077955194582        3.42091352694122        0.69568220329732
H            1.22791616499106        4.44742194506333        0.90937873089315
N            1.00140523148393       -1.23930092766483       -0.81252193635330
N            0.86732409495174        1.13101768687993        0.81043757703497
H            2.15456353934077       -4.26777506851402       -1.63506790613085
C            4.07094047523564        1.40123091269973       -1.03432167072810
C            3.61382308109731        4.05150484800963       -0.33716408395396
C            4.74523254658584        3.71133402865982       -1.04452725180202
H            5.45427386695976        4.47133375601374       -1.33351749192630
C            4.95708274263026        2.38412885879232       -1.41099143238202
C            4.29969355294705       -1.03549424915978        0.84243594524032
C            4.39746491467773       -3.60684369438453       -0.21673284519074
C            5.44082380118874       -3.13173437381506        0.54185835034345
H            6.29987037130256       -3.75576056461786        0.73391594880706
C            5.38071056803432       -1.84807144145026        1.08650730139824
H            4.42098662753118       -4.60721018539914       -0.62062167587530
H            6.18587538836165       -1.49316400926681        1.71099062815019
H            4.25637570588228       -0.04960750423763        1.27764340765789
H            4.24764547760514        0.38263107747607       -1.33861934908271
H            5.82190155595441        2.12228776016615       -2.00087487767899
H            3.42049936745050        5.08013984161203       -0.07364905016713
F            0.00429999230124       -2.86816040247067       -2.02198656502915
F           -0.54239315406752        2.68718703487061        1.64634750350667
