57
 energy: -107.992445919604 gnorm: 0.000231867634 xtb: 6.5.1 (b24c23e)
Si          -1.37206993637959       -1.17974248726777       -0.63441946589583
O           -2.80626781390110       -1.08609901346189        0.15073311313097
C           -3.76631369882153       -0.05945321299831        0.11152550800232
C           -3.46893734861573        1.00162732462597        1.14195363313552
H           -3.77165789337622        0.39436224753992       -0.88852356548523
C           -2.75974829125459        0.68864417554302        2.29253740205067
C           -3.91570131665633        2.30273567807872        0.95108987575648
C           -2.48292859796174        1.66704335282712        3.23089325199064
H           -2.41123600129670       -0.32241958505260        2.43582915511398
C           -3.64643499657644        3.27827895986509        1.89386297106950
H           -4.46375726941834        2.55142238006034        0.05378934428241
C           -2.92539991721563        2.96383925716626        3.03403533241572
H           -1.92122367488858        1.41546097669214        4.11921823563961
H           -3.99447257161928        4.28895352769677        1.73601932801032
H           -2.70903135222074        3.72830187126256        3.76650683686124
C           -5.14676878130657       -0.68951781921082        0.38242656366616
C           -5.53915546693399       -1.54374469361615       -0.71728154361379
H           -5.88414294700315        0.10609944262631        0.51676552717294
H           -5.08296568581376       -1.27786558946232        1.30102580096063
C           -5.82111884852014       -2.23447614492121       -1.65238722537863
H           -6.07973223612827       -2.84716191446364       -2.46311740163046
Cl          -1.95997605469528       -0.81279376965800       -2.55514709812423
Cl          -0.93082737797385       -2.87447514455348        0.43739833294226
O           -0.66864792619247        0.19409279482635        0.14393500225503
O            0.39767522661570       -1.35249731695765       -1.51097197117931
C            1.57694629853295        0.77493432760841       -0.35568683189317
C            1.99844855345110       -0.55346750276797       -0.02114294950221
C            1.87297934897407       -2.85174535240917       -0.57029475040097
C           -0.24661125385314        2.20310249976887       -0.90725354621227
C            0.55636082376876        3.22668441285314       -1.27781061977449
C            2.48351981704923        1.81119455252266       -0.74813917022169
C            1.96913065144551        3.06127884526942       -1.18711586379146
C            2.99606463317296       -0.85378931488448        0.95553076954009
C            3.45108101130869       -2.18986839787376        1.10039331791032
C            2.88700804440045       -3.18954140596310        0.26731956815103
H            3.22197358134542       -4.21113011709992        0.31482697428810
N            0.23122114194113        1.03622177294799       -0.42028665539028
N            1.41807113442447       -1.58561862934108       -0.69903980364476
H            0.12660480653299        4.13721340292577       -1.65739681701144
C            3.47813597135001        0.12150455112284        1.84691541342139
C            4.42651220710956       -2.48582401221830        2.06344608347631
C            4.91058511517076       -1.50332109967005        2.89309866396160
H            5.65756089396716       -1.73926470683889        3.63528838153584
C            4.41896680169961       -0.20009901989767        2.79484635832828
C            3.87473023578893        1.61518124723697       -0.81206210318199
C            2.84499363974376        4.08063426419697       -1.57036919710934
C            4.20734268690977        3.87605627506974       -1.56734654977389
H            4.87674297465374        4.66811644488332       -1.86458941375717
C            4.71540526758190        2.63038075941753       -1.20790444360703
H            2.43294080968132        5.02879029100154       -1.87993836035042
H            5.77928025903348        2.45362203914454       -1.24556426390787
H            4.29084554623076        0.65560903691806       -0.55316622069045
H            3.09569253967713        1.12820733326756        1.78468160116676
H            4.77580461553281        0.55912119327648        3.47356866661209
H            4.77826013479490       -3.50232169976675        2.14915384196430
F           -1.56936228345439        2.29087215898223       -0.96886107731264
F            1.31864277018893       -3.73604244687447       -1.38475094596765
