57
 energy: -107.997507367745 gnorm: 0.000460031417 xtb: 6.5.1 (b24c23e)
Si           1.38504601119882       -0.90009944506223       -0.14724040479299
O            1.85543528484690        0.65454772684574       -0.21979657632810
C            2.93634579611488        1.37559765237921        0.33704905104697
C            4.24871965945098        0.67654104622712        0.06598391095352
H            2.92964998028466        2.32540986538543       -0.22347862583429
C            4.47329602546663        0.22845804101532       -1.23140935253582
C            5.21939720780038        0.45631466848554        1.03145821502625
C            5.63466043654819       -0.44604915188196       -1.55483228986261
H            3.71814841166891        0.39949994463454       -1.98453113403800
C            6.38756712118017       -0.21071516626447        0.70325523320238
H            5.07360999711374        0.78467728741881        2.04779365599454
C            6.59746134069106       -0.66755130294211       -0.58514913679573
H            5.78545836420983       -0.80008221643037       -2.56366252775851
H            7.13304881609525       -0.38271655210397        1.46565537516980
H            7.50570734488845       -1.19701237746719       -0.83252610763735
C            2.65660438174200        1.68406757455327        1.81511841503768
C            1.35217431628899        2.29347623048930        1.95980813102306
H            3.41977852755056        2.36833443863522        2.19234110681954
H            2.67925441576888        0.75224673907319        2.38387468812089
C            0.26256104987579        2.78265529040818        2.03716962853448
H           -0.68513718655206        3.21912311835896        2.14490246385410
Cl           1.87421643884580       -2.35389551718839       -1.49184038520569
Cl           2.61718168906080       -1.60519041657374        1.42202809266457
O            0.03839978332744       -1.07795250720088        0.92357776126619
O            0.09339093076818       -0.41654161779495       -1.45936826841338
C           -2.11474379500581       -0.61494320082906        0.03350146462163
C           -1.66036505075654        0.67550578080326       -0.38862636528626
C           -0.10787791243164        1.87013267091342       -1.71464755139736
C           -1.51193931724681       -2.77727456990698        0.82392110796729
C           -2.76862345349101       -3.26537083045132        0.70167253799674
C           -3.45725083179352       -1.07717622392858       -0.15046315561345
C           -3.79638237514245       -2.40729154074484        0.21620167294230
C           -2.28605484135165        1.90850791071967       -0.02967281802912
C           -1.81148135305090        3.12041205419925       -0.59542619732498
C           -0.70726041520172        3.06627069425088       -1.48509642539837
H           -0.32029843639642        3.95830115375668       -1.94677262554951
N           -1.19293558921170       -1.49265252749370        0.54380991660242
N           -0.55560754482352        0.71255658676885       -1.18701927081326
H           -2.97224564471752       -4.29326598426191        0.94676620322861
C           -3.29534260989398        1.97444415784072        0.94728402027154
C           -2.41640031767320        4.33364697483939       -0.23835787314235
C           -3.43235687542299        4.36289449965251        0.68775268377582
H           -3.88847702022364        5.30133646571552        0.96327479849007
C           -3.85683490992599        3.18004694075892        1.29556658550130
C           -4.44587080427808       -0.29408227787641       -0.77293779493132
C           -5.10756673597595       -2.86368958985951        0.04938581449597
C           -6.06885282314812       -2.05134671126158       -0.50942391791200
H           -7.07834811483524       -2.41065120693666       -0.63469662282385
C           -5.72476366198660       -0.77262782094541       -0.94186539549869
H           -5.34926151400873       -3.86947710647179        0.35671780425621
H           -6.46554238365279       -0.15106370453972       -1.42081801196982
H           -4.19865873013803        0.69265721270817       -1.12872299195421
H           -3.62105964418817        1.06805286466335        1.43245851740824
H           -4.62620615804937        3.21287585033384        2.05156514091560
H           -2.05754925082869        5.24521009436677       -0.69103318921935
F           -0.51022263674664       -3.52121965210964        1.26744554105794
F            0.93112660736208        1.76051068232568       -2.53057352217850
