57
 energy: -107.996686762563 gnorm: 0.000863439867 xtb: 6.5.1 (b24c23e)
Si          -0.69571183727542       -2.17219852719823        1.08059158925354
O           -2.09627554388297       -1.97564964955808        0.34419081266376
C           -2.54463470366027       -1.57095391328872       -0.94289798130570
C           -2.93961870228193       -0.11776794559198       -0.88134556868506
H           -1.72652686874954       -1.70209526380633       -1.65305181150913
C           -3.91040744516498        0.30743038083245        0.01777309422928
C           -2.31355518354689        0.81617360443191       -1.69591224477717
C           -4.26342647384313        1.64356245251554        0.08311724167808
H           -4.37734914328328       -0.40761277084003        0.67810519070101
C           -2.66087916950755        2.15379501767344       -1.62374551878795
H           -1.54568918388533        0.48841865034268       -2.37972633985864
C           -3.64191005244576        2.56846222806518       -0.73919032901395
H           -5.02418675602157        1.96313118757258        0.78028498990669
H           -2.16311603291225        2.87471332029649       -2.25579830288942
H           -3.91607253864026        3.61191059019044       -0.68810637214348
C           -3.72063839047264       -2.47634002516096       -1.33584118101088
C           -3.25841456397453       -3.82942566745550       -1.56312140711495
H           -4.18121518655818       -2.08205274323577       -2.24546001839503
H           -4.46080345281706       -2.47704434312683       -0.53250882063513
C           -2.83146334906251       -4.93263858145543       -1.73912848522309
H           -2.47603656115794       -5.90779718413078       -1.88975460247801
Cl          -1.35728411722630       -2.88668860929735        2.85316354654577
Cl           0.70049451284845       -3.48297277692759        0.49296726175156
O            0.13408018739802       -1.02304051859698       -0.99075222038219
O            0.11735953349411       -0.78072915487937        1.59428259174846
C            1.76367987864304        0.40835177600725       -0.22389446372511
C            0.70916024549774        1.16968976272917        0.38878194805706
C           -1.23365640005045        1.11680702101325        1.76520936719416
C            2.31176181084151       -1.46480207962203       -1.54401640859736
C            3.63909600238940       -1.17275426129057       -1.54862492320396
C            3.14440057389269        0.75238690660010       -0.14489540420358
C            4.09996900155003       -0.04892928502494       -0.82217735405545
C            0.47312478618584        2.55162227993035        0.13791764548579
C           -0.61842718579210        3.20648859963577        0.76907716516074
C           -1.47613763935688        2.43723678073604        1.61280011637484
H           -2.32752255425597        2.88461344831685        2.09410797396838
N            1.38472136884407       -0.71428226474630       -0.89961185143845
N           -0.17716945647920        0.49383706182875        1.19915866468401
H            4.32083658338111       -1.80519726486743       -2.09128843643940
C            1.23776881059324        3.28444332359706       -0.78806193438096
C           -0.85598341174907        4.55775558772998        0.52279724754087
C           -0.06359759203879        5.26286050918293       -0.36134862479751
H           -0.25741408226764        6.30751215639942       -0.54927340222561
C            0.97112606653649        4.61422970701948       -1.02751501240729
C            3.60499850875814        1.81678481501609        0.65121285207040
C            5.46222736792178        0.28001124350198       -0.74069945746367
C            5.87819413284225        1.34641352688950        0.01626488992653
H            6.92724992576475        1.59167617425721        0.07939044012048
C            4.94480198003399        2.10624038879269        0.72630369904348
H            6.17475940048274       -0.32840425776221       -1.27657451980618
H            5.28159113400964        2.92386266469830        1.34498286648992
H            2.89344506815700        2.40396072957395        1.21003431275515
H            2.03767299451509        2.79553659609199       -1.32057126369821
H            1.56993275625806        5.15506427142653       -1.74454860333274
H           -1.67857138871532        5.04145269490446        1.02695122402406
F            1.82278413989258       -2.48599582853948       -2.24306367065644
F           -2.00682280370962        0.34617545855547        2.52442980327308
