57
 energy: -107.912208408841 gnorm: 0.000781335413 xtb: 6.5.1 (b24c23e)
Si           1.13062600013191       -0.80676401174660        0.70848638943988
O            3.05919907683187       -0.08514895123203       -0.24647828575968
C            4.13167028526540       -0.14138506400603        0.31954146248317
C            5.35537072275979        0.44648094753494       -0.20642772410733
H            4.22238837719296       -0.65732824011545        1.28707017181526
C            5.32062544000159        1.20794375538081       -1.37818474916553
C            6.56705597345826        0.25416248784824        0.46046344544961
C            6.48267841416912        1.76439506962487       -1.87333520805400
H            4.37052347014750        1.35152465483626       -1.87033072464784
C            7.72602696501337        0.81004886182605       -0.04500728557865
H            6.58643972366339       -0.33281678411891        1.36656787745215
C            7.68452125565782        1.56355284685835       -1.20949399281420
H            6.45805962772430        2.35574279332897       -2.77635192261418
H            8.66525975276300        0.66048111907664        0.46604932514521
H            8.59332556180680        1.99768083959517       -1.59969410995283
C           -0.21395224963815       -2.96361233823184       -2.34071252482774
C            0.60610564616796       -2.68315918252475       -1.37520297611098
H           -0.03709506955910       -2.61209185542985       -3.34375997271651
H           -1.08986664268183       -3.57680001927261       -2.19542562337583
C            1.39257595009552       -2.35308844070908       -0.40288980234589
H            2.23182255402742       -2.99149934945717       -0.16647829945644
Cl           1.26898183926217        1.14433224901604        1.62491572048004
Cl           2.21400966464628       -1.68174306925226        2.33677857121739
O            0.33705031946118       -0.07999814399323       -0.75667757573124
O           -0.45676674662275       -1.07559510936585        1.43497277749050
C           -1.81655936881879        0.62615496776111       -0.23700863519614
C           -2.18619506702942       -0.75871990445796       -0.12543441190944
C           -1.68153280794119       -2.90349112735672        0.75816353855336
C           -0.12229395350977        2.18509078457219       -0.79541258698453
C           -0.94665950084658        3.25395208207806       -0.65419075964254
C           -2.72030828872230        1.70643645038587       -0.00504853907295
C           -2.28092500044968        3.03986522814872       -0.21755310794712
C           -3.28007507761898       -1.33039281505780       -0.84510882007638
C           -3.56908318742852       -2.71380360981090       -0.69920227991322
C           -2.72816520279697       -3.50034676722007        0.13733322679732
H           -2.89419040440889       -4.55675286219654        0.25960180783884
N           -0.53328205151034        0.91535785124417       -0.59394725043335
N           -1.42981395950097       -1.58125941978277        0.66421119005606
H           -0.57525279435058        4.24632871421956       -0.84294430439842
C           -4.03477891416738       -0.59182588589362       -1.77415064214559
C           -4.63562486808183       -3.27984883916495       -1.40512991935071
C           -5.38764744684416       -2.51840889903586       -2.27194543737216
H           -6.20765086000464       -2.96344131266268       -2.81395022086263
C           -5.06947656253706       -1.17620881375001       -2.46742448928097
C           -4.01060451535818        1.50154327805744        0.51613595446183
C           -3.16136226552488        4.10345244151330        0.01966705279760
C           -4.43193642121096        3.86973469601740        0.49090506104075
H           -5.10276764270060        4.69472106176048        0.67513985346428
C           -4.84838585213589        2.56442622090194        0.75467098558371
H           -2.81917957359220        5.11051295805098       -0.16335906986731
H           -5.83425007641655        2.38794133357562        1.15664919020285
H           -4.33918696575478        0.49783341954276        0.73451152526047
H           -3.79582985284579        0.44494999964022       -1.94730922928404
H           -5.63488235190958       -0.58880692677041       -3.17450305836089
H           -4.85205887513315       -4.32806328501796       -1.26555646553324
F            1.12109051426697        2.31524236720223       -1.23470616893458
F           -0.86015871686940       -3.57973345195550        1.54864404679999
