57
 energy: -107.993792850940 gnorm: 0.000572136876 xtb: 6.5.1 (b24c23e)
Si          -0.60985114581503       -1.76435677181315        0.30781502987934
O           -1.86039323948566       -1.37477864611035       -0.62822502567306
C           -3.25062366305517       -1.52282830518408       -0.46358285559686
C           -3.88784608448048       -0.15550497638138       -0.46502415560159
H           -3.45517006810554       -2.02680604052500        0.48903833680925
C           -3.30555198771683        0.88345752211586       -1.17925193741393
C           -5.05267620460341        0.08096470990382        0.25280745964440
C           -3.87329524872598        2.14532573975000       -1.16628709545618
H           -2.39581199927029        0.69537138502121       -1.73067990604392
C           -5.62578662583555        1.34002317991675        0.25575985957554
H           -5.50241824101945       -0.72212982669322        0.81807163184456
C           -5.03587353302361        2.37552895007888       -0.45029507620665
H           -3.40645329798792        2.94974113169484       -1.71768242188503
H           -6.53081735597289        1.51687279405392        0.81863825568587
H           -5.48100368514384        3.36004249483239       -0.44030285971199
C           -3.78990931661819       -2.38748745166401       -1.61793201282604
C           -3.20312162150798       -3.70945338728853       -1.55850233124341
H           -3.52617433042112       -1.91256576704024       -2.56632340330261
H           -4.87785461772304       -2.45310560470863       -1.53849102104823
C           -2.67612941058681       -4.77944201930858       -1.46652025475371
H           -2.22280972546414       -5.72274748339674       -1.40002845215232
Cl          -1.62457565351983       -2.58681420861687        1.98132337670106
Cl           0.71593105178487       -3.33125767938547        0.18209472560012
O            0.33097596957976       -0.88600247573636       -1.10945210486423
O            0.00405330004115       -0.50073352983659        1.32453430609777
C            2.07834763119665        0.37199430234541       -0.22145037869482
C            1.08469624929331        1.29545688086737        0.24317116520315
C           -1.07953185069709        1.53964557107694        1.20391878076325
C            2.50395053983883       -1.53620126820859       -1.55627032755557
C            3.85146741965328       -1.41558794961387       -1.43612740269413
C            3.47911624539969        0.50745038804687        0.01598146067081
C            4.38092336395484       -0.40126243099218       -0.59668519509854
C            1.10566814408475        2.69850187468134       -0.03329276369110
C           -0.00644572679439        3.49895175687399        0.34593923110051
C           -1.12377385937060        2.87233558614979        0.96842024281718
H           -2.00180556811758        3.43399452831279        1.23562651799338
N            1.63607217116015       -0.69991705437153       -0.94446807568712
N           -0.00770975248256        0.78085409506810        0.88946807864222
H            4.49633522302147       -2.10194391971321       -1.95713275953167
C            2.14379922646987        3.31142866218392       -0.75744627322780
C           -0.00334808102651        4.86952095354396        0.06873976678075
C            1.05241534317584        5.45050665358745       -0.59816546589364
H            1.04737020524474        6.50913776162965       -0.80614124528568
C            2.11703621112880        4.66076174391231       -1.02624235026633
C            3.99100620171528        1.45971487798573        0.91542692997974
C            5.75579353186309       -0.27888902118954       -0.35340650242935
C            6.23123247785044        0.68623081085816        0.50228704748700
H            7.29056077953739        0.77057439595990        0.68954632383854
C            5.34224855472093        1.54556591427771        1.15019751447110
H            6.43157432253725       -0.96502468250763       -0.84016510150964
H            5.71838165016632        2.27825994507976        1.84733256679898
H            3.30976472389965        2.11929496239093        1.42949186366637
H            2.97042471160731        2.71657633335123       -1.10990605327281
H            2.92807842985957        5.10819320932076       -1.57990247780243
H           -0.84878523728438        5.46261937880091        0.38191631701463
F            1.95761224081404       -2.43485431383974       -2.35984981858528
F           -2.07207178774461        0.89846432045071        1.80302731593864
