57
 energy: -107.993648914553 gnorm: 0.000572411541 xtb: 6.5.1 (b24c23e)
Si          -1.30846721720747       -1.59944010469232        0.45654500693101
O           -2.37721623518819       -0.99355960689467       -0.58877631865866
C           -3.48936986166295       -0.15334587385226       -0.38587889758752
C           -3.07286076028001        1.28556005847220       -0.57817419744201
H           -3.87992089697620       -0.29984883756341        0.62986880339962
C           -2.00618070379711        1.59317857790529       -1.41375392822904
C           -3.74808519881032        2.31208353003031        0.06916896479326
C           -1.61193175872241        2.90768253051872       -1.59113022610213
H           -1.48133767775615        0.78906207365288       -1.90660609485610
C           -3.35749014658881        3.62665150709718       -0.11526731841367
H           -4.57248602459497        2.07656043953143        0.72580865971491
C           -2.28777800934461        3.92734673024582       -0.94275858124805
H           -0.77503684230186        3.13689631562582       -2.23546693453580
H           -3.88700303713643        4.41913391937939        0.39306571259173
H           -1.98094971761114        4.95370899595960       -1.08238256323154
C           -4.57303958170656       -0.53867262020707       -1.40877552650113
C           -5.09415539701330       -1.85850043782791       -1.12415345176988
H           -4.12667690754417       -0.52709696746936       -2.40623073052260
H           -5.38021384857272        0.19746900924022       -1.36825743333028
C           -5.49945379335292       -2.95056222411423       -0.85289843282243
H           -5.86071952964616       -3.90819634739906       -0.62527310696699
Cl          -2.59293039267031       -1.89789775161908        2.12069999938140
Cl          -0.59684925491396       -3.51548082739846        0.43369085924780
O           -0.09003447903135       -1.14061967575438       -0.96481316210733
O           -0.29395411052911       -0.60483809765460        1.45370705700619
C            1.96729534012268       -0.46745489721490       -0.12194982091882
C            1.32023809303453        0.72585385103514        0.33999904931129
C           -0.52688959931412        1.68883129233760        1.48981070540726
C            1.75844198072008       -2.47085097444289       -1.36801522252933
C            3.08186424038406       -2.76073156619959       -1.27089776997977
C            3.35504363680723       -0.74460712085801        0.07558336317407
C            3.92120827514929       -1.90875122661699       -0.50677587678572
C            1.78937999795539        2.04335150678560        0.03618888022941
C            1.08355227277365        3.17208709543615        0.53143250025212
C           -0.10014348605496        2.95782787076688        1.29318418293137
H           -0.67459671112279        3.78272184014429        1.67592655592195
N            1.20533623854373       -1.37880217564035       -0.79520978770573
N            0.15460871482206        0.60716294094211        1.04935267425970
H            3.47266635230548       -3.63745377908513       -1.75789691084912
C            2.88061731416493        2.26989936989794       -0.82119685616550
C            1.53283319701922        4.46093110557785        0.23030141162572
C            2.63385451481549        4.65099423057794       -0.57526168621238
H            2.97311782660244        5.64899668677704       -0.80496310664791
C            3.29376158537052        3.54924890723832       -1.11485157569667
C            4.16470914867197        0.05267255408638        0.90393192726811
C            5.28049385905404       -2.18888991797460       -0.31009790619795
C            6.05800728877057       -1.36744921147695        0.47083603883353
H            7.10311019946837       -1.59059571507535        0.61996984652912
C            5.49089248613196       -0.25389530088122        1.09258738067840
H            5.70115654303161       -3.06716638391487       -0.77488734277254
H            6.09691611966285        0.36797589327709        1.73313924304844
H            3.73454578711362        0.90886064007520        1.39882595830932
H            3.39615621420051        1.43065065423426       -1.25926868779959
H            4.13351819170664        3.69797265885044       -1.77612554199423
H            0.99254108790075        5.30420195345156        0.63198718868736
F            0.94132692566284       -3.20087034713203       -2.11048503004018
F           -1.63070625251331        1.41819324980463        2.17168305708053
