57
 energy: -107.995076588991 gnorm: 0.000574589580 xtb: 6.5.1 (b24c23e)
Si          -1.34040941195837        0.22990312215142       -1.24858843305235
O           -2.50397825253621       -0.51765425754395       -0.42835084245184
C           -2.96993373663831       -0.47833786752444        0.90036695161787
C           -4.45237631986443       -0.19304934595998        0.91064007219365
H           -2.43961753800101        0.30340369017304        1.45189982500714
C           -5.23738053519183       -0.45907432422788       -0.20190410231389
C           -5.04368078985195        0.32478840927283        2.05650057393177
C           -6.59763195406958       -0.20428755234621       -0.16966224399161
H           -4.77265531546254       -0.84977678920651       -1.09389400832622
C           -6.40390592929503        0.57235153411012        2.08847892017867
H           -4.43292559352074        0.53964795003849        2.92250647774533
C           -7.18377294976862        0.30890538557624        0.97436346417037
H           -7.20010480837145       -0.40695180347989       -1.04272980334388
H           -6.85551878907597        0.97791731689483        2.98215641861139
H           -8.24495663251277        0.50850323010089        0.99805835169351
C           -2.68650880416526       -1.84635966943810        1.55698139603466
C           -1.30158117334077       -1.97023491463303        1.95157818294536
H           -2.93901037604421       -2.62717374192211        0.83489921647203
H           -3.32221855276632       -1.95999716893819        2.43888793068276
C           -0.15379437953804       -2.03759824342632        2.28481697344739
H            0.84460653810612       -2.11372662855961        2.59799694600662
Cl          -1.28863214439977        2.22622045895191       -1.77339135386619
Cl          -2.05633900827277       -0.46003945347522       -3.07757778742360
O           -0.51066420379852        0.70714684093416        0.46655489999809
O            0.17308603017373       -0.50499251866122       -1.59538211806628
C            1.76975759145570        1.02770705033939        0.09766062315395
C            1.91625266286614       -0.39364615311390        0.01645413092870
C            0.97542369449342       -2.46326198973827       -0.68986337975325
C            0.34786342383082        2.82942539679873        0.67631545983569
C            1.34414880448015        3.74821183542180        0.60687212101445
C            2.83694699721254        1.95688527580752       -0.10706954414923
C            2.62428555057732        3.33488482337455        0.15529655511073
C            2.91696736315325       -1.11940249798361        0.74087051071756
C            2.94102265715443       -2.53899548583247        0.67104061171297
C            1.91700252797503       -3.20535348361745       -0.06203811513508
H            1.86279154820375       -4.27963751299860       -0.09026994206440
N            0.53431460035327        1.51879687698783        0.40432591163918
N            0.99596698720621       -1.11121933645047       -0.70328287791143
H            1.14260783153756        4.77613547975805        0.85338093833380
C            3.82718113956646       -0.48912530900414        1.60829530923390
C            3.91723150619014       -3.25510479986534        1.37063265218261
C            4.83330700653877       -2.60312382437906        2.16656814453945
H            5.58220463509786       -3.16324088297797        2.70436177960998
C            4.76718426969588       -1.21837666155108        2.30046043754331
C            4.06930447753063        1.56023532361280       -0.65552443371506
C            3.66856336928290        4.24681902327580       -0.05256119091499
C            4.87727342386375        3.82367588272045       -0.55088255802105
H            5.67439548950782        4.53225803689363       -0.71499164244609
C            5.06850251092520        2.47843450710589       -0.87106782466526
H            3.49878399248482        5.28875457304344        0.17101324222445
H            6.00587462984022        2.15803210929842       -1.29875377096373
H            4.22257623641905        0.52502777582458       -0.91676100187294
H            3.78561735424676        0.57955314016926        1.74022058426941
H            5.45401226023676       -0.70930280195074        2.95895449897692
H            3.93002627594491       -4.33093829487617        1.28622411053272
F           -0.86833177750356        3.14448029244589        1.10118590656331
F           -0.01365441020959       -3.01925002741043       -1.37314915440426
