57
 energy: -108.000246639774 gnorm: 0.000611057379 xtb: 6.5.1 (b24c23e)
Si          -1.42027202257347       -1.09566391011580        0.40318793001647
O           -1.93583669427468        0.39516608090527       -0.00008932779679
C           -3.05009611787594        0.77572608886633       -0.77552074584643
C           -4.34285674454110        0.42991635263134       -0.08399027736447
H           -3.00059429157159        0.25727416498448       -1.74033209439565
C           -4.45082731250300        0.55937281186250        1.29361532424436
C           -5.43190721130310       -0.02079364015422       -0.81626288259670
C           -5.63245259273807        0.23125605747827        1.93341567954446
H           -3.60037444932892        0.89871641751955        1.86515499406346
C           -6.61571404057728       -0.33954467232554       -0.17575225903768
H           -5.34461667415121       -0.13566469458910       -1.88669231507827
C           -6.71739301793460       -0.21619262282499        1.19972915224775
H           -5.70319378532585        0.32238752161907        3.00710811112615
H           -7.45764075662895       -0.69541786757088       -0.75111430582027
H           -7.63938460196425       -0.47512892759233        1.69936714730114
C           -2.95002400791850        2.29594150960157       -1.00209368987991
C           -1.73036216450267        2.62836688813570       -1.70528334510880
H           -2.96506064733036        2.79785589024630       -0.03098656627682
H           -3.81618601920050        2.62323376777758       -1.58196350339813
C           -0.69851117553281        2.85157339303341       -2.26943444463053
H            0.19258989343755        3.07130054987943       -2.77731653897758
Cl          -2.02039543669955       -2.16903289695186        2.02621771760679
Cl          -2.47714452077985       -2.19770161518172       -1.05946079732805
O            0.02837616878810       -1.48706876226537       -0.45018703276954
O           -0.28114833873428       -0.22012842061377        1.65307090640296
C            2.06976705334039       -0.66932466029318        0.44600550154674
C            1.52742819965893        0.65533037770992        0.47420412515934
C           -0.15548318737475        2.06553847390504        1.35089528595609
C            1.61937475806272       -2.99891501896641        0.24998722235105
C            2.87792154251703       -3.35711309074824        0.59672438428477
C            3.41067654617855       -0.98017437476259        0.84107589003218
C            3.82852019213077       -2.33751651952601        0.88929658846926
C            2.13032929979569        1.78846896747800       -0.15405444117880
C            1.58168751120213        3.07876560955277        0.06093543954794
C            0.42626426013852        3.19590389278222        0.87628178068409
H           -0.01679972753589        4.15567453170151        1.07797697902486
N            1.23082740016215       -1.70835926011148        0.13346220668746
N            0.36001182773708        0.83466354111454        1.15550899334863
H            3.13961833618559       -4.39847193175605        0.66869584877857
C            3.19586565027651        1.65425118633096       -1.06144868874317
C            2.16662972823821        4.19074996290473       -0.56017024668579
C            3.23435529937450        4.03423839704400       -1.41208278916709
H            3.67385337418271        4.89371719303368       -1.89468189801793
C            3.73538316248180        2.75852954939574       -1.67702113083413
C            4.31588871943283        0.00239085511086        1.28041517568299
C            5.13758597653877       -2.65100316330571        1.26790340990764
C            6.01919295875449       -1.65986182934143        1.63761233059033
H            7.02760127672182       -1.90984972656358        1.92822200689842
C            5.59377419076709       -0.33371900346890        1.66423895573061
H            5.44084090577029       -3.68660602110421        1.27533901496679
H            6.26949732359992        0.43993354173536        1.99500278029406
H            4.00494272855906        1.03324127995970        1.32332059946233
H            3.58311800292095        0.67150582494340       -1.27956431928993
H            4.54800249371405        2.63708124219769       -2.37662175697367
H            1.74968783078663        5.16821463861724       -0.37249690709971
F            0.68841571662462       -3.89531855152614       -0.03814980505360
F           -1.25251478917748        2.10894462160673        2.09486062740887
