57
 energy: -107.633748207775 gnorm: 0.000472228667 xtb: 6.5.1 (b24c23e)
Si          -1.13886953784107        0.57749723890779       -0.92660909108904
O           -2.70088857443587        0.73040546187039       -0.62044907581024
C           -3.66495233819526       -0.23976961368000       -0.22918268235142
C           -3.41631791138708       -0.70070252072534        1.18237149969394
H           -3.59059857057505       -1.09092466740884       -0.91794662450221
C           -3.11282220558709        0.22764756540184        2.16909670358905
C           -3.49678093916782       -2.04614040574003        1.51213546088809
C           -2.89556000432886       -0.18403665707626        3.47076944225687
H           -3.03813599863842        1.27209256554029        1.90845414547191
C           -3.29315319052865       -2.45527820380413        2.81787898438887
H           -3.72195976909134       -2.77317665779760        0.74525123064909
C           -2.99436961501801       -1.52545503565772        3.79890009966540
H           -2.65489483299890        0.54432527074702        4.23096522700356
H           -3.36539955335326       -3.50296152130149        3.06832018385581
H           -2.83828621166163       -1.84631520720668        4.81847218304773
C           -5.05069785550329        0.40994048912045       -0.36515659377173
C           -5.32457255356243        0.75473264598547       -1.74454914602754
H           -5.80643385716533       -0.28979703925472        0.00080413987004
H           -5.07767657964970        1.31362387377929        0.24817572961906
C           -5.51499575948678        1.02658188438261       -2.89384643649865
H           -5.69453909771253        1.27717162864657       -3.89631909773457
Cl          -0.61396958226111        2.15313883864562       -2.02285956788856
Cl          -0.75802014084940       -1.20944459521605       -1.76029360524165
O           -0.37165350699388        0.64331715073915        0.54443291222556
O            3.06393558665011       -0.14383968007847       -1.84103023287219
C            2.00371125375564        0.69738127561906        0.46232296087834
C            1.95114298829579       -0.69086833081953        0.08935139441037
C            2.46990082397486       -2.32394409710811       -1.53532673124045
C            0.73817053952330        2.64053833381662        1.08953038963481
C            1.83007128688977        3.43265793221026        1.04880307984417
C            3.18278545287905        1.48303965260276        0.44194174922315
C            3.10336901980694        2.87930539441931        0.69490425441917
C            1.28531668862903       -1.67637784247714        0.87230588405519
C            1.18415169636810       -3.00159018896512        0.37824383455165
C            1.80740482485030       -3.29936808125060       -0.85366698173523
C            4.45265208477892        0.91695973044368        0.22583747465125
C            4.24943517056893        3.66513489767035        0.62638982110524
C            0.77260740905101       -1.40122710368603        2.15303774611029
C            0.50235447077324       -3.97387697021695        1.12812031844056
H            1.76910465608826       -4.29732497753056       -1.25658325369440
Cl           3.24272674277859       -2.62063758943068       -3.03587061914321
N            0.80943962512226        1.30342385045794        0.82802079093563
N            2.52502383893745       -1.02370502100824       -1.11012070814918
Cl          -0.81406658774502        3.23584280993378        1.50846022334946
H            1.74895835151406        4.47790077034772        1.29405601626091
C           -0.02565817706473       -3.66267846949631        2.35413818822890
C            0.13357887954056       -2.37605018890565        2.87606195586380
H            0.89911172164790       -0.41917052124730        2.58066186954316
H            0.41325022246971       -4.97058567939951        0.72268252995793
H           -0.54504316332089       -4.41313008357437        2.93049533768551
H           -0.24609201562238       -2.14882552090286        3.85997232474358
C            5.47469493484000        3.09353223141315        0.33836526296949
C            5.57153176040731        1.71716129162344        0.16260942130523
H            4.55605108969192       -0.15010602463638        0.12372722495027
H            4.16872853538680        4.72744934275518        0.80230814899364
H            6.35760345535097        3.71082226837190        0.27417419720860
H            6.53615101917410        1.26812110015000       -0.01935289379627
