57
 energy: -107.645002903109 gnorm: 0.000594054683 xtb: 6.5.1 (b24c23e)
Si          -1.28190241555318       -0.25035507249239        0.68460445688821
O           -2.06498572039363        0.58405488664992       -0.45544535789264
C           -3.35082080057344        1.15926257237765       -0.43938065151695
C           -4.42216209177386        0.10066882615133       -0.46141322600656
H           -3.46109721290637        1.76805462926605        0.46722384434718
C           -4.21859399316316       -1.07547430641073       -1.16981343042712
C           -5.61622157187464        0.29048571588424        0.21938331861126
C           -5.19462718848889       -2.05513994952678       -1.19047661940462
H           -3.28248037287153       -1.22231805891174       -1.68774151572874
C           -6.59530191298443       -0.68654140255373        0.19084637722070
H           -5.77128456206500        1.19922845946271        0.78264411385915
C           -6.38597094915374       -1.86084938768177       -0.51249909888063
H           -5.02403841394560       -2.97234201468753       -1.73502001985965
H           -7.52045485618601       -0.53474448588677        0.72716756993665
H           -7.14803882369186       -2.62623318417492       -0.52666559613134
C           -3.45177487878922        2.06002559838381       -1.68394766077253
C           -2.42872032884698        3.08266097414180       -1.65612262144032
H           -4.44270151706272        2.51936985120089       -1.71369492806618
H           -3.31718249559729        1.43995461412861       -2.57358226363037
C           -1.55204546886026        3.89491840346579       -1.59699893442137
H           -0.80186551019683        4.62690408696588       -1.56234351240134
Cl          -1.37900976508083       -2.25307779654530        1.19643414886030
Cl          -2.48745769896664        0.32450440410628        2.37060496411228
O           -0.16187075182913       -0.64817913676838       -0.75380123305639
O            0.07490090372952        0.49963034196141        1.44060491445557
C            2.04557778320041       -0.69878489280159       -0.02584870378334
C            1.98623667288521        0.72858556234213        0.09639319471150
C            0.72876531616253        2.63259807401222        0.81302591293238
C            0.98676048221538       -2.65767101149138       -0.85867087876719
C            2.09534360806711       -3.41922509618548       -0.63608879813445
C            3.20208855892354       -1.46633549585459        0.31100727594360
C            3.22696794700046       -2.85039591009209        0.00194941403961
C            2.96260791301977        1.59496479956346       -0.48849377752118
C            2.80353941429166        3.00015310538684       -0.35823968218121
C            1.64749216853303        3.49719057363887        0.30266013445366
C            4.28454470532376       -0.91438859206519        1.01790685844467
C            4.35658385754194       -3.61153727856534        0.33364143639968
C            4.02971830927818        1.11910749912139       -1.27063676396153
C            3.75502818883266        3.86211070072849       -0.91573129949802
H            1.48694190298637        4.55760165842750        0.38921131743731
Cl          -0.68424484584118        3.16037381458639        1.60773388182953
N            0.94944406719773       -1.34607866092483       -0.51823632344041
N            0.91978929769361        1.29192137280467        0.74028952955240
Cl          -0.38607691220609       -3.27118889783696       -1.65396435712332
H            2.09863919114432       -4.45472255553662       -0.92904862259822
C            4.82232590921266        3.36364077441296       -1.62792371339448
C            4.94196805409014        1.98880432818402       -1.82229791911569
H            4.13370262728168        0.06047535809668       -1.44407571130414
H            3.63114455869882        4.92608845256415       -0.78400984609310
H            5.55240698450416        4.03416219453019       -2.05397963464532
H            5.75453668686467        1.60024947784292       -2.41670016894110
C            5.41968579263329       -3.03564005261919        0.98786901509672
C            5.37300222753964       -1.68723039012579        1.34539967188453
H            4.25275280881893        0.12398504147314        1.30799598729271
H            4.37036204619426       -4.65906069231575        0.07505410716988
H            6.28511866941538       -3.62779443444031        1.24238146207651
H            6.19510440562331       -1.24902639536209        1.88995196258549
