57
 energy: -107.558478362550 gnorm: 0.000428491450 xtb: 6.5.1 (b24c23e)
Si          -0.93002686958487       -1.10723042856771       -0.96394478835412
O           -2.69994747428107       -0.92498687774359       -0.36534161335849
C           -3.06913117010118       -0.72234231071491        0.79904047995770
C           -4.38438997289935       -0.25125746676202        1.12818352861357
H           -2.37503168888120       -0.90430330046733        1.62388623708581
C           -5.31331781908265        0.02332378330067        0.11252520246645
C           -4.75080823835723       -0.05712063897034        2.46748517023927
C           -6.57290531217049        0.48053089631474        0.43415628626625
H           -5.01006818587522       -0.12738527012092       -0.91259155211465
C           -6.01447034420519        0.40099295517384        2.77675031833073
H           -4.03577652851361       -0.27096850722892        3.24774847408001
C           -6.92619495939877        0.67025219777728        1.76420079746578
H           -7.28710199894125        0.69150204371653       -0.34756536688585
H           -6.29759268364846        0.55062813180546        3.80800564544001
H           -7.91409353181892        1.02862313789974        2.01272478951497
C           -3.58940642686716        1.41074413346775       -2.66075200880381
C           -2.42458948797861        0.87441359597907       -2.46199343978254
H           -3.90926761309776        2.30006152210414       -2.13968247202371
H           -4.28001969949350        0.99724642454650       -3.37806371691912
C           -1.28367448076194        0.32203935148584       -2.21851774647700
H           -0.42537908990859        0.61281548702442       -2.81064130929719
Cl          -0.54502739469243       -2.54750449222683        0.65354467915520
Cl          -1.53686778074704       -2.63375944082045       -2.30666222595490
O            0.80705679361253       -1.02171829884660       -1.48106961731862
O           -0.44805119138669        0.13016883021901        0.43713251006337
C            2.21924117534646       -0.24609438349945        0.17118283814160
C            1.62962580955185        1.06177943300101       -0.00885359767361
C           -0.33649156173767        2.39468643148821        0.03374979203264
C            2.30251741793304       -2.51571237423778       -0.53830321931758
C            3.31969681092557       -2.79954919842039        0.32520142765911
C            3.25045269916808       -0.49583405055580        1.12069280203033
C            3.81154773510578       -1.79807386719408        1.19727727936888
C            2.40718626504551        2.21497875396583       -0.32041904013830
C            1.76229505363447        3.47557700005781       -0.42858365480207
C            0.35809123614975        3.53670455362943       -0.22445651384995
C            3.67831639179214        0.47671043832283        2.04401882908711
C            4.82107197585438       -2.06053015513686        2.13556615121110
C            3.78329446936080        2.14127912917785       -0.60232722515829
C            2.51478554295048        4.61463648727997       -0.73999134701220
H           -0.15929422863078        4.47860997770944       -0.28055832980343
Cl          -2.02139084167548        2.39228206154473        0.33907750603936
N            1.77235938253471       -1.26899161260365       -0.60101534567095
N            0.27811452944560        1.19039138808233        0.12471788266375
Cl           1.67704183476795       -3.65604668531737       -1.63534885570250
H            3.73091172127118       -3.79368003923844        0.35088098319825
C            3.86796308531710        4.51806981051714       -0.97211773084349
C            4.49631966170376        3.27440856602719       -0.91683000994054
H            4.28005912311853        1.18460131691658       -0.57379693533003
H            2.01237769579134        5.56784975594103       -0.80139809392840
H            4.44123365085483        5.40001391255682       -1.21267900642567
H            5.55159887601655        3.19804902345457       -1.12927978330336
C            5.24600147874980       -1.07975850686383        2.99877204966682
C            4.65967646318834        0.18740147115009        2.96016157669250
H            3.22581390161726        1.45572449110973        2.03162248459376
H            5.24996217172990       -3.05013737891911        2.17095974284919
H            6.02140056695624       -1.28914815215821        3.71961568011375
H            4.97597305524561        0.94429794386749        3.66157240216213
