57
 energy: -107.648587100005 gnorm: 0.000402464765 xtb: 6.5.1 (b24c23e)
Si          -0.56807263622899       -1.98925856457838        0.36834291877646
O           -1.85093109771637       -1.01238516218341        0.58849315571279
C           -3.19776657446358       -1.14804846134416        0.19886787705550
C           -3.56501114423354       -0.08738962624543       -0.80747042508440
H           -3.34760126818570       -2.13905906225809       -0.24379110055413
C           -2.97788128460952        1.16868235419579       -0.75701867335486
C           -4.51806619104987       -0.35136698599303       -1.78251269344416
C           -3.32915544713717        2.14656100713465       -1.67028800669894
H           -2.23623360727456        1.37575907567959       -0.00169932103434
C           -4.87806483635980        0.62966775167880       -2.68872748119735
H           -4.97086841344393       -1.33077674614635       -1.83337279894545
C           -4.28395280562107        1.87998914901314       -2.63603271834266
H           -2.85539426109160        3.11712786105622       -1.62290940538675
H           -5.62027980198337        0.41594868634654       -3.44370120419906
H           -4.56272259441921        2.64254140550403       -3.34840687046145
C           -4.08562985386857       -1.02300562755724        1.45345027625696
C           -3.72522993187584       -2.04343862214506        2.41466225730920
H           -5.13161210580974       -1.13535868022249        1.15827807632494
H           -3.94647166787081       -0.03142784844189        1.89385665414635
C           -3.35468868515730       -2.89701693536234        3.16658315542290
H           -3.05058279800870       -3.64173788213083        3.83952966739701
Cl           0.01137086585872       -3.50240856157535        1.61394217043015
Cl          -1.39281045003247       -3.25797584679906       -1.13271974033131
O            0.44711288540861       -1.33607628656580       -0.86749878973329
O            0.37818536714629       -0.91578663992290        1.56914419502505
C            2.00938241054958        0.29475362953921       -0.19205539834117
C            0.96220355692710        1.03510658375111        0.44723380617431
C           -0.64167066741135        1.06098846798773        2.20465219452367
C            2.69563901457106       -1.78904433910544       -1.15160380226898
C            3.99199201674723       -1.38577764099582       -1.23310534607020
C            3.36230260992348        0.75975047338465       -0.24147113756411
C            4.36049938999240       -0.08298884663630       -0.79907979742836
C            0.66939047503107        2.40394750012482        0.16018934152644
C           -0.25640162075421        3.09888041111694        0.97992209501288
C           -0.87066629132065        2.39742009501067        2.05015465996530
C            3.77081543923482        1.97933274009981        0.32721058885831
C            5.68789439594789        0.35715781463871       -0.86168364281627
C            1.19626714558179        3.05754469558877       -0.96664652131762
C           -0.55954972042774        4.43791953766867        0.69543156197526
H           -1.54887991322444        2.90345574598481        2.71503103042095
Cl          -1.37889290314500        0.13473150423136        3.43361315137604
N            1.73183044606415       -0.94959009414241       -0.69162437725185
N            0.22261080764890        0.39840204684214        1.40031756288594
Cl           2.17721858126190       -3.34000452183829       -1.64430687444973
H            4.73924641447062       -2.06323067289113       -1.60739144456607
C            0.00132848116556        5.06511991932309       -0.39201531529469
C            0.86689222546231        4.36524019485065       -1.23392673813051
H            1.85814480338295        2.52007431942220       -1.62724516384150
H           -1.25162054093909        4.96100855162522        1.33741360166324
H           -0.24044573131370        6.09453340691544       -0.60801388037959
H            1.27566331041587        4.85204071143470       -2.10585790151594
C            6.04678044842117        1.58276111538350       -0.34880563376137
C            5.08503185731577        2.38149847959089        0.26708493258396
H            3.04839303793337        2.60789038937439        0.82137140766961
H            6.42640001762429       -0.28880198619511       -1.31086948411119
H            7.07180005547038        1.91545441677828       -0.40086198084264
H            5.37289778542643        3.32330159999606        0.70836633022650
