57
 energy: -107.648117057078 gnorm: 0.000693495235 xtb: 6.5.1 (b24c23e)
Si           1.31696916614969       -0.82170883121598       -0.27077344004705
O            1.87616451833597        0.69886682157244       -0.13005654221616
C            2.95377117083571        1.28746520606616        0.57027841947757
C            4.25694408638010        0.59082898591348        0.24850872469417
H            2.99963012992502        2.31062516963506        0.16005807449170
C            5.19968022768942        0.24308676570868        1.20461274393674
C            4.50996287334512        0.28837664826621       -1.08508320298388
C            6.36450614791001       -0.40530569440460        0.83075325818516
H            5.03375764480346        0.45662212771530        2.24820183588644
C            5.66769095180969       -0.36724037183705       -1.45633509495363
H            3.77961029142856        0.55622812217371       -1.83418908153015
C            6.60101724577806       -0.71663655082024       -0.49583989209616
H            7.08653291048640       -0.67756950261449        1.58649680120595
H            5.83806029481271       -0.60668606463395       -2.49535795264326
H            7.50617846280534       -1.23245047554078       -0.78029609486881
C            2.62477459515008        1.38495382277590        2.06693116474045
C            1.33424011837822        2.01061914319956        2.25907542214200
H            3.39189489026591        1.98098507997438        2.56647492767352
H            2.60028923066015        0.38041044445269        2.49412395110561
C            0.26126614667858        2.52722512768987        2.37709082051601
H           -0.67547136888555        2.97658066542080        2.51993335412746
Cl           1.76732356122598       -2.10712843432363       -1.80003428179150
Cl           2.54613247899139       -1.80394699741233        1.17040543457285
O           -0.02137941974569       -1.09327497344199        0.78535247723725
O            0.07144496837352       -0.13124515682635       -1.49451327831267
C           -2.14418292116497       -0.48160743644830       -0.03781184938328
C           -1.65659305439646        0.84237601938409       -0.28944484996770
C           -0.11678017802082        2.17844842750122       -1.50941705977060
C           -1.60598928170858       -2.75195903168066        0.49449315366308
C           -2.89019886121345       -3.15749917200347        0.30314313151508
C           -3.50127514770265       -0.86390373562867       -0.28120604181511
C           -3.88514204706301       -2.21574902510325       -0.07674748239876
C           -2.26594699698670        2.02272191670174        0.23428389085849
C           -1.79197271067131        3.29056174142815       -0.18988904640359
C           -0.71619569549627        3.33620295451686       -1.11203383260655
C           -4.45762204536624        0.02187968062502       -0.80901576032459
C           -5.21084100120331       -2.60446080525825       -0.30180353285783
C           -3.25423003856248        1.97309804427284        1.23295300086600
C           -2.37539127427952        4.45542804890582        0.32926211504646
H           -0.35070434280463        4.28069130392987       -1.47623163348439
Cl           1.18132784280437        2.16473163023454       -2.60965796538988
N           -1.26011214466414       -1.44433992227905        0.36994330888950
N           -0.56096527937379        0.97162350661798       -1.08992735019490
Cl          -0.35597635971384       -3.82840460652960        0.93507010996836
H           -3.14395592687970       -4.19678562678345        0.41707782539957
C           -3.36987232914581        4.37688228570985        1.27569841657017
C           -3.79506719804181        3.13100122731899        1.74058948877609
H           -3.57976291170068        1.01560921155086        1.60767056214976
H           -2.01734881197414        5.41309955996828       -0.01612396916401
H           -3.80939807090255        5.27736019641064        1.67666399731228
H           -4.54824721235548        3.07609780483104        2.51153016871976
C           -6.13959499531378       -1.69920907894712       -0.76272442924025
C           -5.75026145608084       -0.38962534888255       -1.03773892928140
H           -4.17561409742097        1.03546030578609       -1.04274449780206
H           -5.48768404607183       -3.63100108437648       -0.11738191041623
H           -7.15976372834804       -2.00586492002032       -0.93396214441046
H           -6.46695100176393        0.30924385075567       -1.44089743337366
