57
 energy: -107.634382461213 gnorm: 0.000750295414 xtb: 6.5.1 (b24c23e)
Si          -0.77428844353056       -0.90116637146748       -1.11901546776736
O           -2.11698172975994       -1.63770762630576       -0.66327162972899
C           -3.47810320708419       -1.23500032877130       -0.63091115162165
C           -3.74042024983982       -0.22863736860256        0.45890453626128
H           -3.73172959048020       -0.79796487486141       -1.60566268003273
C           -3.02173008777357       -0.26245822446993        1.64538247693469
C           -4.72730553973352        0.73370739838046        0.28364120370577
C           -3.27510792021916        0.67025256168215        2.63562195959480
H           -2.25016116701861       -1.00490635779630        1.78161150243712
C           -4.98505660840776        1.65828609072326        1.27944936099515
H           -5.28745198283431        0.76252108628063       -0.64056796218731
C           -4.25513140313153        1.63090585524863        2.45613187913778
H           -2.70541733707795        0.64506733407835        3.55209859279878
H           -5.74983461234568        2.40645952435289        1.13267340271689
H           -4.44984150109771        2.35885294256315        3.22966531438929
C           -4.32062219462792       -2.50360638682114       -0.41059960909752
C           -4.22004329929211       -3.39196074206678       -1.54946415886401
H           -5.36391864105837       -2.21589769569315       -0.25706107053390
H           -3.95623835619764       -3.01157972311142        0.48544308406372
C           -4.11248775941888       -4.09070027431165       -2.51441748072481
H           -4.03179324025522       -4.72513148648715       -3.34564627650724
Cl          -0.84317166755353       -0.05797802309338       -2.93931938957522
Cl           0.58141762488156       -2.34688370462735       -0.94306924787379
O           -0.53277952234142        0.30210788173485       -0.00138386755187
O            3.51610217124240        0.15094410146783       -1.38450159628384
C            1.57794508316081        1.40154153780267       -0.04364708049680
C            2.15381446581020        0.18425266463184        0.46075144302322
C            3.71385050972228       -1.55442995809393        0.11502874459985
C           -0.43439119033264        2.54545014231300       -0.69427821615403
C            0.25636449188186        3.60766416535010       -1.16024020904965
C            2.33909765996214        2.51711850328731       -0.47561133007375
C            1.68749966220735        3.61908308531637       -1.09244780324377
C            1.69674944939557       -0.45713148373045        1.64703427601322
C            2.25250304992228       -1.70866520518362        2.01550648095673
C            3.28774771361837       -2.23706328739283        1.21359116479901
C            3.72846232731767        2.59633369291347       -0.26876692797013
C            2.43554279256068        4.68999713854416       -1.57174925674474
C            0.75125651537689        0.13153874559771        2.50663283185437
C            1.78581924613366       -2.36719108959135        3.16487312769387
H            3.74898068169812       -3.17628830358316        1.46806354846785
Cl           4.96061823322135       -2.14438755122363       -0.90013917623654
N            0.19561891161184        1.46660110110174       -0.14728198835479
N            3.14788223871468       -0.37858963107527       -0.29720721843319
Cl          -2.15345613350683        2.47929423756016       -0.70761652181676
H           -0.26865026045358        4.45652280414121       -1.56349567900775
C            0.82511477900142       -1.79115595953123        3.95530692450448
C            0.32560779228208       -0.52606497215407        3.63364888686112
H            0.36699668304173        1.11553063144995        2.28773731272949
H            2.20363904900532       -3.33068732141561        3.41485607180507
H            0.46671073334110       -2.30003020404791        4.83756323358741
H           -0.39632838389189       -0.05869460190845        4.28625677763653
C            3.81024820802544        4.70565194770536       -1.42559208915350
C            4.44557648136256        3.66890030983940       -0.75064301579796
H            4.23545750340465        1.82333607553155        0.28355730667262
H            1.92742281318236        5.50973553644604       -2.05729994003725
H            4.38575462927587        5.53319193224480       -1.81133232787181
H            5.51327252893459        3.70626672916882       -0.59675307545287
