57
 energy: -107.645846843284 gnorm: 0.000626677029 xtb: 6.5.1 (b24c23e)
Si           1.30250054599317       -0.18209357673305        1.28946954488232
O            2.29433712986147       -1.06852430200861        0.37876639034141
C            2.74373283478575       -0.92449917783454       -0.95277851293361
C            3.95639029190114       -0.03206528535116       -0.99997978786294
H            1.94280540368589       -0.48835851180919       -1.55595794390300
C            4.87504146112395       -0.04387293361738        0.04047983002953
C            4.16029801565235        0.81374732438814       -2.08204684299321
C            5.98356634393311        0.78279648942778       -0.00042122076781
H            4.70341776590918       -0.68929129541413        0.88856667016780
C            5.27177082699390        1.63628960973058       -2.12368121520313
H            3.44084610722213        0.83127527758557       -2.88887859201831
C            6.18501927763707        1.62222067419577       -1.08277874398922
H            6.68997665621103        0.77266844515947        0.81623491514596
H            5.42122225434624        2.29537282794741       -2.96658153415768
H            7.04939160365883        2.26915392562104       -1.11359500715424
C            3.05964844402112       -2.33516794829385       -1.48256785448345
C            1.83114912123711       -3.06983589051080       -1.69204092196778
H            3.60791407837156       -2.25290232064813       -2.42444725158911
H            3.68259532432148       -2.85215080634579       -0.74915819383655
C            0.77423561236905       -3.60803557593260       -1.85133409207384
H           -0.13192164425211       -4.11422790618840       -2.00040937001928
Cl           1.51378977325092        1.77953038649406        1.87706153511989
Cl           2.05629486986861       -1.00724163649172        3.06231165423668
O            0.46462162537044        0.45019553001649       -0.38185143032505
O           -0.26998020860206       -0.74917059431032        1.67512095723627
C           -1.78755547106134        0.82824725301315        0.01316951618620
C           -1.96776704768404       -0.59402963358138        0.04983766780569
C           -1.11827257991510       -2.71096650363965        0.77991955487639
C           -0.31773424636835        2.61707734210250       -0.53087066414568
C           -1.31360382134747        3.54198621554733       -0.42496092004990
C           -2.84490359982389        1.76346548310283        0.23052171415919
C           -2.60361927158547        3.14305088401493        0.00708123326793
C           -2.96786863666019       -1.26479745734090       -0.72226879678060
C           -3.04272498518890       -2.68217134682155       -0.67299915175079
C           -2.07624065138779       -3.39021863716994        0.09308230220519
C           -4.09344874298277        1.37141164626757        0.74334506258620
C           -3.63630698719318        4.06730814018448        0.22278679119597
C           -3.82764394739957       -0.58810654433900       -1.60547255469277
C           -4.02235273968662       -3.35328880906027       -1.41340346265048
H           -2.08449350451423       -4.46608351355217        0.11718074327979
Cl           0.08641137716782       -3.49835714525489        1.69584594754786
N           -0.54186139957767        1.30546045558251       -0.27268987298716
N           -1.09964086875689       -1.35417118260415        0.78855928112509
Cl           1.25104619244149        3.01939765696677       -1.07227093160982
H           -1.10847594631625        4.57428962541647       -0.64881682039719
C           -4.88921021433163       -2.65733520180050       -2.22606884253581
C           -4.77115684424280       -1.27351687389211       -2.33609108906257
H           -3.74623088977699        0.48083169936693       -1.71608161524625
H           -4.07992217019592       -4.42878683052333       -1.34242828020427
H           -5.64217462552688       -3.18207137119112       -2.79350913112149
H           -5.42154433758248       -0.73129840695498       -3.00511907904332
C           -4.86134766990475        3.65075054965962        0.68610020381648
C           -5.08196986447607        2.30046811894478        0.96348664104166
H           -4.26912339817294        0.33162101309029        0.96983005344440
H           -3.44614796090444        5.11186168034336        0.02934530129929
H           -5.65027107138483        4.36786563108182        0.85370086525177
H           -6.03416459053019        1.98414533396394        1.36055235130722
