57
 energy: -107.645040483557 gnorm: 0.000680258751 xtb: 6.5.1 (b24c23e)
Si          -1.36987591348492        0.05504960834041       -0.69295420777327
O           -2.06699903534501       -0.75599524598873        0.51814671786509
C           -3.30526465261232       -1.42695560142806        0.55770050868437
C           -4.45043057471300       -0.44993180540863        0.49679853851775
H           -3.36733079942683       -2.11498927872726       -0.29536946002742
C           -4.33083176222992        0.79404017285147        1.10091502252960
C           -5.62818805212159       -0.78165671770213       -0.15745086478758
C           -5.37368114642477        1.70050234280819        1.04344122532036
H           -3.40758335126918        1.05008068474303        1.59875757151405
C           -6.67438633419331        0.12239529248814       -0.20587433779702
H           -5.71852105217480       -1.74463535015414       -0.63875296263476
C           -6.54846212265348        1.36482458868103        0.39233918937175
H           -5.26825559043706        2.67112643963897        1.50574395124238
H           -7.58683728842299       -0.14028065661386       -0.72064360672881
H           -7.36271258681794        2.07295916450789        0.34520121379888
C           -3.34324271450155       -2.22389852829608        1.87397533710490
C           -2.28146754748212       -3.20582919604673        1.91110453295234
H           -4.31366853019313       -2.71822578365427        1.96341067828838
H           -3.21899180546582       -1.52529447517402        2.70511932936209
C           -1.37760338533889       -3.99002176241490        1.90969913256416
H           -0.60455212000347       -4.69863901678433        1.91551077731583
Cl          -1.76485392973378        1.92398905490331       -1.48946297171867
Cl          -2.35090153105483       -0.93746118718410       -2.32983200214243
O           -0.42827605326570        0.83844091828228        0.72059373928232
O            0.13775562556230       -0.54606389780381       -1.26947951255849
C            1.78666224722181        1.15495209423282        0.09221654503599
C            1.96089952023421       -0.26580452946783        0.18337225982379
C            1.07910642347460       -2.43397139617311       -0.30911532491601
C            0.37417411752252        3.00718924517726        0.56834441758625
C            1.35884854888233        3.90394996952325        0.27716111243264
C            2.82742689501996        2.04863934920856       -0.30452702510949
C            2.60806106368609        3.44716342237038       -0.21519825061787
C            3.01196189223297       -0.86667011076517        0.94470334014476
C            3.08297993181692       -2.28276849265332        1.02326207724223
C            2.07790448682404       -3.05285862937441        0.37764417144797
C            4.03245244513459        1.58996265783206       -0.86455627147848
C            3.62068309273658        4.33141883258680       -0.61276165216970
C            3.92729355179725       -0.11409377087878        1.70167172739545
C            4.10599709322688       -2.88727816628007        1.76308760504114
H            2.09516703914933       -4.12665129019449        0.44152045279496
Cl          -0.15926611631854       -3.29482538669039       -1.10417348954623
N            0.57055727435435        1.67292491197474        0.43154395816878
N            1.04791527542324       -1.08271932231583       -0.42298241518175
Cl          -1.12816724381919        3.48975583080613        1.20423405069629
H            1.17643434538689        4.95670257926920        0.40578178860368
C            5.02104144621890       -2.12299686213415        2.45105180967171
C            4.91343361425939       -0.73357915663958        2.43417346713063
H            3.85393434001671        0.96114401151720        1.71264624965393
H            4.15795067428934       -3.96482802721403        1.79168320170617
H            5.80641531345562       -2.59618283814081        3.01978286389507
H            5.60581302016577       -0.13539731780570        3.00630239090768
C            4.80565982840352        3.85396208635465       -1.12079774039147
C            5.00254678778140        2.47936537643768       -1.26116670140677
H            4.18911336170158        0.52988817152141       -0.98696147920540
H            3.44758006745140        5.39267602752474       -0.52216819578387
H            5.57966345186793        4.54028102566692       -1.42805703114851
H            5.92111246419879        2.11141094085995       -1.69155845197454
