57
 energy: -107.645793761702 gnorm: 0.000776814501 xtb: 6.5.1 (b24c23e)
Si          -1.30868911726513       -0.28742145031309       -1.22789518467503
O           -2.35425029421388       -1.06204397094270       -0.27794398308045
C           -2.87421136444426       -0.79546994348284        1.00688354060343
C           -4.25301039188431       -0.19630629517645        0.89778727084304
H           -2.21233821203051       -0.09961127009097        1.52855772447119
C           -5.08061735371786       -0.51592032493404       -0.16912624066088
C           -4.70586491949966        0.67953559718060        1.87614181161729
C           -6.34629485122959        0.03675444783806       -0.25710239638124
H           -4.71828316821845       -1.18391112451036       -0.93560102718466
C           -5.97346717837930        1.22614397524824        1.78968111810266
H           -4.05901623495872        0.93693795727432        2.70364083100712
C           -6.79592108103547        0.90561437546719        0.72229744862682
H           -6.98206159015873       -0.21154751069415       -1.09394942684869
H           -6.31724979956337        1.90883346086513        2.55319066286543
H           -7.78362096633241        1.33722735779713        0.65250262904864
C           -2.90720829675269       -2.12877281104609        1.77838635678151
C           -1.56774327022615       -2.51589278546199        2.16334624720281
H           -3.52878250097057       -2.01587631560265        2.66988245242387
H           -3.34528390028608       -2.89188193252201        1.13128227215505
C           -0.43518633022203       -2.76749782278648        2.45748974574265
H            0.54188021013609       -3.01855680831091        2.74446687426104
Cl          -1.54562661243353        1.56836917683730       -2.09378246418563
Cl          -1.91909362150634       -1.37994721326072       -2.90945214759404
O           -0.59087576700926        0.57791626553669        0.37621055716004
O            0.30009093024513       -0.83234243118318       -1.46899893011681
C            1.64628554160027        1.06626884682448        0.01401378056431
C            1.92812772277845       -0.33147089566751        0.16288037768381
C            1.27184049470305       -2.58491766380980       -0.31326762371750
C            0.03771470624192        2.79654291607165        0.28701107059437
C            0.97029094675937        3.77201354988467        0.09769866820499
C            2.64314996850241        2.04310216367175       -0.29129649160921
C            2.29923125963679        3.41829599081686       -0.24735044052467
C            2.95094835325922       -0.81867228710388        1.03735099081944
C            3.14130727596766       -2.22032384189365        1.16474757616807
C            2.26109060797034       -3.09488759913496        0.46915135008314
C            3.93175820270493        1.68364573394471       -0.72217078093741
C            3.27110307084561        4.38240336931191       -0.55155424200685
C            3.72068419121499        0.02937320365103        1.85315518813050
C            4.14279096524850       -2.71281126887193        2.00943852245796
H            2.35394921694308       -4.16115884815946        0.58282348365151
Cl           0.15737428132073       -3.57268080390948       -1.14477128046968
N            0.36158168328664        1.48320360294766        0.20199313712033
N            1.14404613109691       -1.24520341320660       -0.49078985089859
Cl          -1.57588051987873        3.14541660259305        0.72026218915521
H            0.68630989741828        4.80624018726859        0.18504049451007
C            4.91972980348502       -1.85341801593498        2.75395689287800
C            4.68791978499774       -0.48122974457775        2.68841268510984
H            3.54986017847241        1.09319077121308        1.82935703640078
H            4.28725148220239       -3.78053715526066        2.07443888613016
H            5.68936529634020       -2.24067851755842        3.40348294808917
H            5.26708658600318        0.19054433625337        3.30314383673263
C            4.53672077456827        4.00304232165483       -0.93005319977927
C            4.85971388062801        2.64884944590077       -1.03255466814725
H            4.18676487956315        0.63969769997239       -0.81457612818406
H            3.00150568297140        5.42577482600659       -0.49473140142777
H            5.27885799836091        4.74989161047663       -1.16683456657273
H            5.84391933674425        2.35698727290025       -1.36533018239018
