57
 energy: -107.650620189612 gnorm: 0.000895166162 xtb: 6.5.1 (b24c23e)
Si          -1.33902118187645       -1.01476249230928        0.75230412372195
O           -2.00811911856965        0.33503177786993        0.13697626994763
C           -3.05412225357390        0.48566601935525       -0.79383555553449
C           -4.40069923604472        0.17941525902931       -0.19013784366198
H           -2.87701859898718       -0.18979205026267       -1.63931022608617
C           -4.63543088989591        0.36960313611773        1.16322202089712
C           -5.42877999853872       -0.28381349064902       -1.00066866316517
C           -5.87861514219999        0.09120497513360        1.70290850745164
H           -3.83666430201782        0.71885850123486        1.79914834713402
C           -6.67334730637852       -0.55336458708092       -0.46251957335033
H           -5.24563847117464       -0.44538221821847       -2.05318453121673
C           -6.90061825791714       -0.36751156376955        0.89099208050454
H           -6.04646666728178        0.23118966786877        2.76048602971112
H           -7.46557375779683       -0.91882609719618       -1.09935685720186
H           -7.87064904906250       -0.58686223991098        1.31216636266633
C           -3.00899083718816        1.94251791413465       -1.29474181427570
C           -1.75687367524607        2.20480683886764       -1.97013026963405
H           -3.84334056739921        2.10597964463264       -1.98064550947346
H           -3.11628404479086        2.61482655896992       -0.43966288633533
C           -0.70007507319507        2.36796705989502       -2.50800956829315
H            0.21438615565064        2.53192256588806       -2.99492323867251
Cl          -1.80470216792073       -1.86342741283863        2.55412557033909
Cl          -2.39128582918630       -2.43974846526283       -0.43680881580258
O            0.08996498790467       -1.44289389407770       -0.11766966328840
O           -0.25368036507508        0.10178494278882        1.78745211849064
C            2.09500654484434       -0.43564640857246        0.59906559072934
C            1.49230416566785        0.85580613687640        0.45023262505294
C           -0.20052691867567        2.34322675870763        1.20020808027400
C            1.76804872856364       -2.80551564561400        0.70525566856684
C            3.06497015664537       -3.02191734277232        1.05410008711943
C            3.46023208594278       -0.60948603364038        0.99228943796586
C            3.95873574932117       -1.92462976331574        1.18948867087916
C            2.05351583213207        1.90072292252474       -0.34635864942000
C            1.48554700776339        3.19839288550941       -0.28474937657286
C            0.35859740112416        3.40275105250020        0.55081709506976
C            4.31146582065823        0.47058764156280        1.28633916045524
C            5.29502446796208       -2.11354615524891        1.56137995147960
C            3.09523329006151        1.66347228671488       -1.25958411751618
C            2.03185925816445        4.22873386370098       -1.06308303165845
H           -0.08044640198412        4.38085047980255        0.64272011964868
Cl          -1.56541603909505        2.51475848088508        2.20088886533758
N            1.31769727008004       -1.55152311042212        0.44107038614797
N            0.33699599311763        1.10365385354112        1.13047861159243
Cl           0.63224811069921       -4.06927324853008        0.53722692410116
H            3.40465622480511       -4.02392511689754        1.24895512222830
C            3.08013377445363        3.97824976761966       -1.91704818696437
C            3.59798736245494        2.68666172391718       -2.02827897471398
H            3.49509559649512        0.66661972133918       -1.35852471287957
H            1.60234807319707        5.21609646521689       -0.99211349822037
H            3.49173778498623        4.77424583544736       -2.51857806812658
H            4.39472506274162        2.48758542057325       -2.72839053153671
C            6.12192485476042       -1.03580138963670        1.78220925099694
C            5.61625659927866        0.25773392210063        1.66652993906719
H            3.93851287210625        1.47930238288494        1.21773013346785
H            5.66109183629985       -3.12145076477824        1.68190057843921
H            7.15107829386512       -1.18915719821876        2.06743926210249
H            6.25105878932034        1.10311622602033        1.88318717200934
