57
 energy: -107.649192061271 gnorm: 0.000911530554 xtb: 6.5.1 (b24c23e)
Si          -1.34505077592424       -1.62154214122989        0.33155286713573
O           -2.30089690152809       -0.30506550500804        0.30903550516784
C           -3.26472811352014        0.12229030481009       -0.63758451174755
C           -2.53336389160774        0.89750595621459       -1.70701248503401
H           -3.73935761334066       -0.75932209392982       -1.08262266185122
C           -1.92123697711685        2.10833795247564       -1.40874320206733
C           -2.36829145966957        0.35142375120141       -2.97296255551628
C           -1.15854959862516        2.76414843884364       -2.35799357677907
H           -2.03013061081210        2.54034209564607       -0.42511955684610
C           -1.60722406568855        1.00909503988192       -3.92360220001020
H           -2.82358697316198       -0.59929288614423       -3.20492662930296
C           -0.99836803309419        2.21437852102354       -3.61803882020601
H           -0.68481554622728        3.70313955997091       -2.10973691188192
H           -1.48268949546162        0.57367347798585       -4.90400215954588
H           -0.39810057834240        2.72381573433090       -4.35784647016048
C           -4.33108644711178        0.94634915879807        0.09739672454360
C           -4.99067000715884        0.12671888711653        1.09297957788019
H           -5.05949244153361        1.30771747586929       -0.63336132284787
H           -3.86703232795091        1.80374846474259        0.59108652133267
C           -5.48300277790645       -0.58578449872639        1.91823505375782
H           -5.93465539132480       -1.19770672163556        2.64026991614942
Cl          -1.46071378237792       -3.12583407200628        1.71135908307920
Cl          -2.27212874045358       -2.72496413906374       -1.23811361804570
O            0.00588794282995       -1.41006166963383       -0.73009328246537
O           -0.32681832462860       -0.77667207649448        1.64302294292611
C            1.87591493749322       -0.29410296952544        0.17262315791038
C            1.03170304958150        0.78755788630312        0.58621798260020
C           -0.76371829215471        1.46896691134498        1.99099350580090
C            2.01215467755186       -2.55108730624660       -0.61741891877431
C            3.36462292635900       -2.57624508066765       -0.47578404175704
C            3.29505565240966       -0.27933690967298        0.36260803057330
C            4.05108071042473       -1.42632494682507        0.00184889561902
C            1.26259214400507        2.14932401378549        0.22155130581374
C            0.49891053309814        3.16970635641427        0.84291789263369
C           -0.50137907022845        2.79081933335096        1.77522089217381
C            3.97043615531553        0.78728906237404        0.98275225714633
C            5.44093292017304       -1.42579285971549        0.17097569436897
C            2.16150979358285        2.50553695509861       -0.79786986802823
C            0.72641224332861        4.50915213367482        0.49612134363054
H           -1.08343038767179        3.53954506343583        2.28461857029451
Cl          -1.99333027301221        0.93787083327213        3.04702627992772
N            1.30329028274123       -1.42449757436954       -0.34602308097610
N           -0.02614186094841        0.50119971719232        1.39821203908968
Cl           1.11633815618706       -3.89479621676120       -1.17357140465139
H            3.90866307880556       -3.47570134513602       -0.70538676100641
C            1.64663298636326        4.83305224443023       -0.47303955586401
C            2.34844545409540        3.82489388734117       -1.13567506196465
H            2.70175283513464        1.73146760474792       -1.31952727369809
H            0.15556649508267        5.27900576252197        0.99267190675688
H            1.81290232727637        5.86592850309384       -0.73903779593017
H            3.03885487428990        4.08285731284371       -1.92386669234944
C            6.08134021219270       -0.34090867333582        0.72572798746482
C            5.33541077970270        0.75615705256469        1.15285939065912
H            3.41376978870631        1.64032590389028        1.33444355277477
H            5.99904440653738       -2.29814616127062       -0.13244789504638
H            7.15294775525275       -0.34751688805643        0.85269159107805
H            5.83077764006158        1.58879237886166        1.62872484606456
