57
 energy: -107.650485038020 gnorm: 0.000852403926 xtb: 6.5.1 (b24c23e)
Si           1.16907577969853       -1.15255531603449       -0.12830496926807
O            1.90771381705171        0.27720683265749        0.10754574345835
C            2.99153255662440        0.62650107903874        0.93411601559817
C            4.31626238572560        0.22156613835483        0.33865660285136
H            2.87068062037240        0.13628644817091        1.90768121862978
C            4.46059004976767        0.02728789521133       -1.02647992417473
C            5.41845088223101        0.05837290372386        1.16831839800812
C            5.68682515101397       -0.33307950504320       -1.55672436915462
H            3.60620166723497        0.14099351973766       -1.67491779239408
C            6.64546497995135       -0.29300149093071        0.63716925838186
H            5.30857403516316        0.19563343317135        2.23456493806740
C            6.78242536309278       -0.49033300284564       -0.72699939838622
H            5.78289294620704       -0.49248993310793       -2.62050017445027
H            7.49610702540178       -0.42144643895941        1.29034440935249
H            7.73969393021426       -0.77224334173851       -1.14012794675305
C            2.93456774536214        2.15508848417502        1.12843561575735
C            1.69227854736507        2.53296886771549        1.76651040610806
H            3.78144514925833        2.46657841403060        1.74389778525022
H            3.00966927876951        2.63938055362758        0.15117506377211
C            0.64378312569473        2.78247311700881        2.28678250253329
H           -0.26638787716883        3.03341096836115        2.74390601505670
Cl           1.53156817511126       -2.44747000054844       -1.66902477684459
Cl           2.20916008077648       -2.27570337876743        1.35480502695046
O           -0.24536127934390       -1.29148483428285        0.85174242542009
O            0.09047790921894       -0.27741380822612       -1.38534759689793
C           -2.23478971448620       -0.41259833327452       -0.05493718225983
C           -1.58547516095873        0.85175509802439       -0.23906532826671
C            0.13692889587985        2.04040111978162       -1.36131928299721
C           -1.99471118727222       -2.74493078006881        0.43037454021396
C           -3.30581080742945       -2.98959559011087        0.16258983848995
C           -3.61280315466664       -0.62490933007215       -0.37805468891895
C           -4.16165929835086       -1.92706939908049       -0.23727043998950
C           -2.09089658344416        2.08136557124607        0.28354870741449
C           -1.47748242371069        3.30037880341610       -0.10158424031973
C           -0.36458195757919        3.24822389836369       -0.97795259333326
C           -4.42968318654862        0.38084275513194       -0.92474327985563
C           -5.50927056025765       -2.15098760341546       -0.54296304829859
C           -3.12133925186416        2.11806899010367        1.23887199843300
C           -1.96946283859337        4.51152759843754        0.40517922131769
H            0.10705899943761        4.15565670681579       -1.31274194048984
Cl           1.47487970716019        1.90929676770448       -2.40419896322133
N           -1.49296974060312       -1.48412143040550        0.36406984611010
N           -0.44225529040184        0.87848649090866       -0.98146875556818
Cl          -0.90278483312779       -3.97099447145931        0.89865014471885
H           -3.68576570598700       -3.99375654230406        0.23128708888732
C           -3.00886878480410        4.52116025508412        1.30523102274331
C           -3.57081914925975        3.31835965177656        1.73689331292145
H           -3.55528049104832        1.19304352605537        1.58469317046189
H           -1.50641109666404        5.43285862799626        0.08733557076592
H           -3.37995548026932        5.45650942741670        1.69543347529624
H           -4.36016399484777        3.33007237611794        2.47278406048370
C           -6.29989441474624       -1.13119251866005       -1.02171455036182
C           -5.74673588695269        0.13040836021229       -1.23308529606752
H           -4.02011581495128        1.36016550747258       -1.11072248316903
H           -5.91296817108034       -3.14239331512810       -0.40680464188050
H           -7.33747634418038       -1.31130011813875       -1.25633705164877
H           -6.35390332319118        0.91909529555185       -1.65006670848602
