63
 energy: -105.817704667366 gnorm: 0.000414639020 xtb: 6.5.1 (b24c23e)
Si          -1.01017911323782       -0.81098547007574       -0.99702970021689
O           -2.70054283216683       -0.61562913253795       -0.35372853488240
C           -3.13623146715032       -0.75420347189084        0.81200272371488
C           -4.43121734141073       -0.30207126831532        1.20422312026644
H           -2.51225329593923       -1.24479860316726        1.56097351097294
C           -5.26501758269992        0.36038808321154        0.28487891725965
C           -4.89585285449576       -0.52289215371062        2.51186135643165
C           -6.51820179917508        0.78321602182798        0.66701319868118
H           -4.89363744603037        0.52193210557212       -0.71620735348031
C           -6.15255523806229       -0.09479247641599        2.88049153080144
H           -4.25978092417164       -1.03688954847457        3.21688826406800
C           -6.96680699203305        0.55836806317505        1.96316577049596
H           -7.15698122461264        1.28906084293569       -0.04170401386977
H           -6.50919677866183       -0.26870917809120        3.88495423418086
H           -7.95109935105762        0.88988684584708        2.25828931683727
C           -3.57399749305513        1.89156398031161       -2.50282458108400
C           -2.41873986875930        1.31756714852310       -2.35040740831874
H           -3.86772887951878        2.76124332565513       -1.93426347312303
H           -4.28070395819566        1.53542412452863       -3.23513182051438
C           -1.29514417454055        0.71436084344628       -2.15153114559560
H           -0.43275555308278        1.01047118624564       -2.73322715541827
Cl          -0.62850921584102       -2.48260974202395        0.43855843880431
Cl          -1.74343031654501       -2.19421069944961       -2.46472070589901
O            0.70476475421684       -0.81555683383730       -1.59482941722758
O           -0.43130285527690        0.21464739112959        0.47476567564050
C            2.20206513584963       -0.39423925766894        0.08919820569398
C            1.72562637918921        0.97798829276951        0.09463022770412
C           -0.09519501514486        2.48701465568397        0.41070478953738
C            2.12188106975703       -2.53157687582229       -0.96661840056186
C            3.13604453820848       -2.98419686234008       -0.17085143470918
C            3.22248419292305       -0.83963152072001        0.97197620940072
C            3.69817253441867       -2.17008668779503        0.83861486084665
C            2.61799138241499        2.06921139260001       -0.10113793639983
C            2.11296408901949        3.39215209172704       -0.00580957840773
C            0.73513191496147        3.56096060463025        0.28065773440013
C            3.72739460323055       -0.04083602606053        2.01645417048134
C            4.69946088909986       -2.63362032378364        1.70749582499574
C            3.96889721682861        1.89024254727610       -0.45516430202046
C            2.97590993490814        4.47884468384846       -0.20088999587391
H            0.33633818795371        4.55700087078284        0.38348460645214
C           -1.54571858468624        2.59532554051272        0.72708880818632
N            1.68015426161687       -1.25979776605802       -0.80407315026244
N            0.40709274759443        1.22982677083866        0.29393278201575
C            1.49172820987604       -3.33812964114426       -2.03988957760608
H            3.49787044622929       -3.99133545504443       -0.29926402482380
C            5.19667224141003       -1.82188182503749        2.69599262835003
C            4.69742855293858       -0.52569617594953        2.85664198299510
H            3.34213015263559        0.95725616140162        2.15575059965375
H            5.06326092608376       -3.64288738893351        1.58708581801462
H            5.96454298623740       -2.18464140032775        3.36235116949064
H            5.07522470823694        0.09599251418755        3.65417383826115
C            4.78962168490203        2.97453892987758       -0.65125768002438
C            4.29968518290630        4.27384660666286       -0.51160809872969
H            2.58009874789489        5.47921175445228       -0.10949930964654
H            4.35925100778657        0.89223871689302       -0.57756474673262
H            5.82269942617558        2.81958818835891       -0.92290997446231
H            4.95871280286839        5.11509539257274       -0.66260639341465
H           -2.13337160755149        2.16033140428789       -0.08065228183708
H           -1.77090812296835        2.02970918840416        1.63110513452783
H           -1.82734354711339        3.63429986231999        0.86609956170289
H            1.39094534407612       -2.74620108275898       -2.94783871622320
H            2.07230910592329       -4.23399968702484       -2.23478043973758
H            0.48163707481161       -3.62250957804505       -1.74625065976528
