63
 energy: -105.905374185539 gnorm: 0.000877836597 xtb: 6.5.1 (b24c23e)
Si          -1.07321000402265       -1.39912885599587        0.58255459176738
O           -2.16519186690133       -1.10925949277277       -0.57533573334945
C           -3.54902845215207       -0.86422118987469       -0.53840158740199
C           -3.79539607775106        0.62013094592536       -0.43088881295201
H           -3.99094327767569       -1.37653942636637        0.32424801644467
C           -2.94941591392526        1.50659181103601       -1.08646480608293
C           -4.84655240299223        1.11635629379856        0.32844358578228
C           -3.14504107647419        2.87148329868720       -0.97661421259970
H           -2.12608243317998        1.11438618594871       -1.66538871200437
C           -5.04602452850040        2.48216991030751        0.43115371059166
H           -5.49744317926194        0.42973801868164        0.84914856072706
C           -4.19526424382379        3.36132439235962       -0.21826088565911
H           -2.47649745108833        3.55263197452193       -1.48341988777310
H           -5.86330472086954        2.86129662795045        1.02674514027418
H           -4.35017083260661        4.42690383386399       -0.13156588287883
C           -4.16119803037336       -1.42178487522808       -1.83635473542028
C           -3.98230228270740       -2.85616855086670       -1.90552101835038
H           -5.22573406819046       -1.17533383430965       -1.86230526407210
H           -3.66391741018824       -0.95093466553382       -2.68811925485301
C           -3.79930234878499       -4.03810672075720       -1.92859704173920
H           -3.65978263608341       -5.07720902666008       -1.95332955789708
Cl          -2.46785917997664       -1.44563115863176        2.26196062280274
Cl          -0.30607777468430       -3.24411025843262        1.09776215236517
O            0.07464500272863       -1.20063284996569       -0.80635068503547
O           -0.21786298713903       -0.19438724626242        1.46082500936596
C            2.08249850018485       -0.30276049304814       -0.07703596913189
C            1.39535527097495        0.93542254467660        0.16586362208120
C           -0.42506762948435        2.09159282633310        1.22611181000461
C            2.00012100083897       -2.46990639112761       -1.08675723408066
C            3.34850277199201       -2.61897894970190       -0.92855282915025
C            3.47781131687832       -0.45925638348504        0.18183302874721
C            4.12266619440251       -1.64603774010207       -0.24855961792444
C            1.87536316609863        2.17238826560219       -0.36918326413640
C            1.18629842016889        3.37205644388936       -0.05518326229588
C            0.03536447258057        3.29137664886690        0.77365796375401
C            4.21577581674299        0.47993516005813        0.92333754915788
C            5.49047978593028       -1.81827774440046        0.00712060167980
C            2.94996468168098        2.23938573454189       -1.27364776461571
C            1.64113857924265        4.58950400774669       -0.57481648838251
H           -0.49026827931066        4.19393820524570        1.03727456217921
C           -1.60286399452362        1.95218117231660        2.12167143798992
N            1.39942212698749       -1.34798693946110       -0.61971334078558
N            0.24518391383095        0.95685472010635        0.90043647849035
C            1.15387621822335       -3.46019573646483       -1.80470394337995
H            3.82974489603785       -3.50558841607372       -1.30720685537283
C            6.19777267087770       -0.86541919267525        0.70073177019944
C            5.55186799452806        0.27827550702029        1.17295969211642
H            3.72397479084799        1.36261126291479        1.30151540893465
H            5.97472769763087       -2.71743217329451       -0.34299972791806
H            7.24994091887202       -1.00582952500799        0.89620848564708
H            6.10469334636171        1.00716102986103        1.74565274279308
C            3.36862889907188        3.44766054937063       -1.78074872903424
C            2.72848984394156        4.63108038412068       -1.41821200398403
H            1.11915818317891        5.49571856648721       -0.30593179478458
H            3.45007724537910        1.33350027599308       -1.57653383089658
H            4.19734741767145        3.47612648925283       -2.47173545537116
H            3.07430134003314        5.57396666663560       -1.81335956680793
H           -2.35827293248628        1.30789942342717        1.67554708014743
H           -1.30429701321628        1.47897775518028        3.05684363359540
H           -2.04040528210411        2.92424548633076        2.32534453506268
H            0.39940230608006       -2.94628093458070       -2.39623511920407
H            1.77039092335154       -4.08665110062905       -2.44216770889739
H            0.62893559712671       -4.08716654735101       -1.08532320847754
