63
 energy: -105.907896241399 gnorm: 0.000348301741 xtb: 6.5.1 (b24c23e)
Si          -0.38865348129940       -2.09705824670524        0.81041561522119
O           -1.81244551164340       -2.27371473099886        0.05122114696540
C           -2.26684775424740       -1.80158225392553       -1.20282720010535
C           -2.75290662641943       -0.38319222667835       -1.04483302226828
H           -1.44085851593620       -1.82817350494819       -1.91824591173425
C           -3.76926345302317       -0.09529339538356       -0.14188079623740
C           -2.16569660097381        0.65538383668182       -1.75404430479247
C           -4.20091597503275        1.20672934572340        0.03512409370142
H           -4.21608365867188       -0.89719015606871        0.42659709373087
C           -2.59654429759616        1.95868930990070       -1.57668348968752
H           -1.36569051801856        0.44082700190936       -2.44778467987981
C           -3.61803746226428        2.23578918281152       -0.68482913096801
H           -4.99474327621719        1.41800356653459        0.73642442312937
H           -2.13040005520465        2.76016371260880       -2.13120525231021
H           -3.95445638595440        3.25290029379278       -0.54936882783500
C           -3.38041064804027       -2.74468303374961       -1.68790737449086
C           -2.81580317824982       -3.99698547766881       -2.14357335255867
H           -3.92627463449556       -2.26483893681636       -2.50511139444267
H           -4.06691833986933       -2.93866614079179       -0.86160686151090
C           -2.30374258093493       -5.01113660211504       -2.51830342476786
H           -1.87485012702715       -5.91225475085172       -2.84054821834387
Cl          -1.23497540402485       -3.03356394598735        2.51942259077957
Cl           1.26916311771963       -3.33599304061673        0.81006738849586
O            0.24849585802488       -1.18282077902985       -0.68257262166477
O            0.00461151049956       -0.72347379816086        1.76296495140114
C            1.68960355953233        0.51723011035807       -0.04310756647668
C            0.56927993738538        1.20466078979616        0.53552648680710
C           -1.32288719507741        1.14978564490820        2.01506408267108
C            2.43397603179858       -1.26092525066405       -1.45951008998377
C            3.69082500686078       -0.73034767032492       -1.50464402793122
C            3.01255819718279        1.05320976177229        0.00224483636203
C            4.03586667859601        0.41125342712870       -0.73879390944699
C            0.28489825286235        2.56875356840255        0.21547037339397
C           -0.79298185215106        3.21832199607452        0.86829911101784
C           -1.57117779533796        2.47022206574932        1.79108737970648
C            3.35507537165053        2.14075471592138        0.82431316314325
C            5.34199834671017        0.91853164228929       -0.69378082010113
C            0.97088845158494        3.26662797269713       -0.79391089823413
C           -1.08526561758407        4.55228824734077        0.56314099042454
H           -2.39289409408164        2.94915366165301        2.29660332792664
C           -2.12176127100795        0.31005749134007        2.94486040762887
N            1.48703186120239       -0.65979059959831       -0.69718581960773
N           -0.27180576568345        0.55775928130701        1.39346372991424
C            2.02533935076767       -2.44635395703680       -2.26124800089428
H            4.44226814601557       -1.20205033897001       -2.11595592347694
C            5.64227297317865        2.00741296631464        0.08955288241052
C            4.64693929088726        2.60784120543841        0.86191508743911
H            2.59606398918026        2.60560460485642        1.43393744522807
H            6.10842658109861        0.43158326489554       -1.27778775929444
H            6.65075631160916        2.39070722998918        0.12270057285524
H            4.89549142928561        3.44147817145333        1.50081354213930
C            0.65051735422222        4.57151847344085       -1.08883744985687
C           -0.36602205634334        5.22723650837329       -0.39723392268594
H           -1.89324910301159        5.03943889952441        1.08803300394004
H            1.75424120205471        2.77307858300296       -1.34691233598354
H            1.18914833217602        5.08894814202182       -1.86827129848940
H           -0.59953016981170        6.25504299745735       -0.62981878692877
H           -2.58476551167888       -0.51553581604291        2.40704232911466
H           -1.47758324368596       -0.13964086737697        3.69955660219784
H           -2.89162807698902        0.90558443977674        3.42475224877924
H            1.09227551164959       -2.24245945876936       -2.78423234723884
H            2.80044484211846       -2.69728054667483       -2.97849699669480
H            1.85316474174351       -3.29728858729664       -1.60378408959808
