63
 energy: -105.906122763736 gnorm: 0.000248887532 xtb: 6.5.1 (b24c23e)
Si          -1.29519122098534        0.00180377484374       -0.61534753171275
O           -2.08538275931704       -0.88327426051809        0.48764099457015
C           -3.36057680930213       -1.47485669122294        0.39462508084197
C           -4.43609320563714       -0.42396775507997        0.30200516022703
H           -3.39662721411969       -2.10782173328168       -0.50134144851466
C           -4.32489367813843        0.74296017383575        1.04521176774072
C           -5.53223922836195       -0.60271915954362       -0.52910981897783
C           -5.29487744034209        1.72409204136413        0.95394562695789
H           -3.46047865697781        0.88217984633463        1.67695691241537
C           -6.50654756619818        0.37602002275237       -0.61354818098212
H           -5.61166535930527       -1.50225768192845       -1.12163273832727
C           -6.38923855300656        1.54053465961326        0.12607909878441
H           -5.19560131646771        2.63438653144150        1.52714054219429
H           -7.35415221093617        0.23369529634103       -1.26757267456689
H           -7.14615514970106        2.30744896600611        0.05143939069091
C           -3.55586754093172       -2.34322741658211        1.65027897573654
C           -2.57786453832986       -3.40770779680762        1.69621379718926
H           -4.56428178516193       -2.76401669304231        1.63761682073082
H           -3.44338327036861       -1.71004414237727        2.53349608734485
C           -1.74334280046706       -4.26567716721645        1.69548123316747
H           -1.02586076361029       -5.03041516156479        1.71793710942947
Cl          -1.72510140113161        1.93366686663562       -1.23822859321710
Cl          -2.28593619627873       -0.81981535638687       -2.37824501293015
O           -0.35928254123549        0.59977344576876        0.82783715886883
O            0.15286708470536       -0.59890497229686       -1.29016135987117
C            1.83654740859373        1.01381514459827        0.16076630393253
C            2.04973401603531       -0.40203694715880        0.07954000866483
C            1.17721731964560       -2.54520115258873       -0.57690071497272
C            0.44711758278523        2.76759173689429        1.00326696527581
C            1.43523516061476        3.68557286338105        0.79342852567898
C            2.84644891324513        1.96414943581137       -0.18101074860405
C            2.64050466892501        3.32914783158483        0.13809916923575
C            3.17334458085987       -1.03862997909013        0.69630964407763
C            3.28872082205793       -2.45069025453216        0.61247582296399
C            2.25225920919136       -3.17876123812372       -0.02990603103339
C            3.99889562474706        1.60449543558917       -0.90104405998572
C            3.62226461502915        4.27127288664648       -0.19915442269093
C            4.12207915885006       -0.34167798419044        1.46554452562086
C            4.38482098390289       -3.09452479619872        1.19912435381790
H            2.31011128218534       -4.25411500597831       -0.06487027582996
C            0.04821191552260       -3.25957814914816       -1.22770116600156
N            0.64367351095837        1.47837458880615        0.63158604408798
N            1.12613240756419       -1.18990858660251       -0.54256845331179
C           -0.83321211451595        3.09696831590870        1.68676960786406
H            1.28373197555594        4.70683225570380        1.10147807677451
C            4.75946738867885        3.88646483312500       -0.86887416219513
C            4.93740218036849        2.55137577759106       -1.23461637714190
H            4.13945110595366        0.57640294165911       -1.19644453631322
H            3.46295053171405        5.30536379162254        0.06700661443483
H            5.50995438960385        4.61758415818726       -1.12844423578510
H            5.81586823722256        2.26133069690022       -1.79051417997802
C            5.18071767571873       -1.00070818646798        2.04588624271353
C            5.33066168462634       -2.37806317101393        1.89582627194859
H            4.46908452238501       -4.16657623579982        1.10191466244465
H            4.02000251103042        0.72215367750312        1.60575275599460
H            5.89880857451067       -0.44375611050466        2.62830342317123
H            6.17351160215128       -2.88130135501457        2.34424963425190
H           -0.83537285546929       -3.19620751503508       -0.59024025768921
H           -0.20765639353192       -2.79723865710288       -2.17920765816473
H            0.29842852347948       -4.30465835008232       -1.38148136596310
H           -1.08046445836380        2.31352309959726        2.40035792178162
H           -0.74926282815022        4.05197602241595        2.19634819687405
H           -1.64020931207083        3.14850754403105        0.95752947625765
