63
 energy: -105.906188263423 gnorm: 0.000550235704 xtb: 6.5.1 (b24c23e)
Si          -1.24377615256821       -0.06909334365940        0.61875741435244
O           -2.13431179941988        0.83331174817144       -0.39074038718316
C           -3.50448691266909        1.14960504755546       -0.28749206721908
C           -4.34816632326796       -0.08605252862651       -0.46662830566419
H           -3.69656522979531        1.57973680983725        0.70367873395817
C           -3.98581946234395       -1.03348501940183       -1.41424064447046
C           -5.47279729692620       -0.29939429405139        0.31676306491741
C           -4.73426480461108       -2.18512430341564       -1.57277070509719
H           -3.09975842247264       -0.86691093677552       -2.00789607930761
C           -6.22651719435209       -1.44807354061230        0.15129253312129
H           -5.74698251094317        0.42845997768360        1.06623104884925
C           -5.85825932202409       -2.39275357061969       -0.79145875519571
H           -4.43959566647118       -2.92302489699042       -2.30493535552734
H           -7.09775389439807       -1.61123484594823        0.76834656009135
H           -6.44228678080405       -3.29336915789120       -0.91176995996245
C           -3.82584047104008        2.18960016291320       -1.37464524953245
C           -3.12151102989506        3.42883322439686       -1.13045277813523
H           -4.90337408715330        2.37226437122995       -1.38085175584671
H           -3.52617312672568        1.78570296968065       -2.34455375954039
C           -2.51569835927045        4.43405053490309       -0.89539496868780
H           -2.00447580747879        5.32978013126108       -0.70420398630653
Cl          -1.46392481189814       -2.09831638559935        1.00607773915245
Cl          -2.31569379532546        0.43403830237271        2.44940846228640
O           -0.22672182066248       -0.39652564429407       -0.85959694873562
O            0.11351247517825        0.62170612821264        1.38265871078261
C            1.97758269448594       -0.69586815918920       -0.15702631565698
C            2.06783363747676        0.71532629578017        0.07971094543267
C            0.98773708095535        2.70357617785587        0.89722969529842
C            0.77583436049802       -2.45107520625637       -1.24819922665071
C            1.82975786766002       -3.30413754472228       -1.09295716316381
C            3.04885004762684       -1.59549770819968        0.13140444005104
C            2.97173225477838       -2.92870556343656       -0.34172750170746
C            3.15872646929892        1.50048505172907       -0.41296843835544
C            3.14791418932049        2.90174783699438       -0.18715639394543
C            2.02442657927004        3.47521160917724        0.46585000593888
C            4.13462629370637       -1.22825452950400        0.94503112437347
C            4.01294854045261       -3.82257792251185       -0.05545261306864
C            4.19797017991299        0.96471198450378       -1.19428243257329
C            4.21077368072626        3.68814031029434       -0.64755322834264
H            1.98630008342356        4.54308936343480        0.60389863284977
C           -0.22292754949908        3.25036549170392        1.56326746851856
N            0.84700814085871       -1.20050034873259       -0.72883504871049
N            1.05620545942942        1.35856865566691        0.73084234237386
C           -0.44470065224796       -2.80112648787756       -2.02449174478032
H            1.77861043305469       -4.29296988046790       -1.51761994999000
C            5.08324043640728       -3.42646081881780        0.71095842815406
C            5.13300954061419       -2.13003870471955        1.22546796877010
H            4.17563935814350       -0.23109986317600        1.35497323073444
H            3.95217628706090       -4.83035161578473       -0.43788421539348
H            5.87962774345950       -4.12107582968533        0.93098393588816
H            5.95862095061695       -1.83544074785830        1.85509709078652
C            5.22245641295410        1.76241530878933       -1.64832058375543
C            5.24687311842691        3.12480315109228       -1.35655716984857
H            4.19785700320144        4.74812796026526       -0.44246825429162
H            4.19442580251218       -0.08388923924968       -1.44362321476314
H            6.01196421719325        1.32685998620067       -2.24166627071263
H            6.06398483627460        3.73725877215409       -1.70577052897359
H           -1.08268134686391        3.15296808198549        0.89761622919223
H           -0.45395683829202        2.68935190337296        2.46703526786153
H           -0.07967649454781        4.29816177949985        1.80807435922128
H           -0.70859926965463       -1.97654595942360       -2.68391881146122
H           -0.27143820914798       -3.70112799225804       -2.60635924840926
H           -1.28158473221692       -2.96616053896041       -1.34789237199811
