63
 energy: -105.911751275546 gnorm: 0.000282296230 xtb: 6.5.1 (b24c23e)
Si          -0.74840688213155       -2.04367418377558        0.38392079786392
O           -2.01108538110297       -1.17251932297598        0.93792649449423
C           -3.29705015191898       -0.97986007480683        0.38275775754706
C           -3.19224365511493        0.00968089746862       -0.75050480353988
H           -3.66846206248759       -1.93881813570462        0.00553848712677
C           -2.62965748401466        1.25895596356270       -0.52138488811976
C           -3.58344724327779       -0.33225697495260       -2.03673814370514
C           -2.45786602412891        2.15482299289078       -1.56026200438167
H           -2.31405221141092        1.52818507107334        0.47588597394523
C           -3.41734222968734        0.56686030278382       -3.07602061607552
H           -4.00016897035221       -1.31002195152450       -2.22473169374961
C           -2.85301936694754        1.80923042192814       -2.84143344208423
H           -2.01144029179906        3.12023873036781       -1.36788861121550
H           -3.72069083061637        0.29142703564236       -4.07532357870115
H           -2.71659276330713        2.50617482791227       -3.65558447807103
C           -4.23041280494224       -0.47785443554176        1.49638770181736
C           -4.29213360381918       -1.43975589380118        2.57629073334540
H           -3.86223394545940        0.47695378432445        1.88093445455090
H           -5.22686450852335       -0.32713613278199        1.07371030479059
C           -4.28871343863637       -2.25258427720118        3.45436611633947
H           -4.30925938514710       -2.96384575747265        4.22476978501224
Cl           0.03066064959865       -3.71135682752636        1.29955958954938
Cl          -1.82483855844128       -3.18030357348211       -1.09653270441703
O            0.04510398115119       -1.28436579800193       -0.93349470753823
O            0.34362935469893       -1.14593573681752        1.53077442520967
C            1.75914654405724        0.21082252772071       -0.33165183972531
C            0.85418989378323        0.90010316673277        0.54246386355774
C           -0.45703977576370        0.77952272052327        2.54044319030508
C            2.18228235318868       -1.73747112706726       -1.67980290693565
C            3.46292365828446       -1.33372213923756       -1.90816174298487
C            3.10851371826846        0.64577490998387       -0.52420897412559
C            3.96393158425464       -0.12590883375710       -1.35330236074692
C            0.61012843745432        2.30400902535610        0.45388763139901
C           -0.13426184612811        2.93684368374850        1.48090261413724
C           -0.61465392100151        2.13663446679413        2.54972825272032
C            3.65940661859442        1.75177811724064        0.14772070187755
C            5.28526906363155        0.28678993080526       -1.56348339884932
C            1.00104996413316        3.06187166148630       -0.66311090925109
C           -0.39116661556755        4.31239939264282        1.39737616913757
H           -1.14519097473909        2.60470489487038        3.36309401745927
C           -0.96916537823476       -0.11709748611348        3.61029517391917
N            1.36224129969740       -0.94191407369150       -0.94557521658422
N            0.23067322402826        0.19768528965613        1.52999194722829
C            1.60987929827094       -3.00431651628959       -2.20608937555978
H            4.11815120681272       -1.95173720581464       -2.49932227351796
C            5.77914989311557        1.40876060703286       -0.93886172158882
C            4.96584135128698        2.12576000207993       -0.06301464635542
H            3.05371934174264        2.31384607592455        0.83989153164025
H            5.91283112619339       -0.29921582562332       -2.21799340220279
H            6.79856469183475        1.72088211117125       -1.10618778517466
H            5.36548760551346        2.98029252912627        0.46151036914158
C            0.72141844591373        4.40626039099272       -0.72740860107452
C            0.03937105402251        5.03949199040225        0.31244317124753
H           -0.94290088892565        4.78796023233708        2.19454423957711
H            1.51781854247848        2.57705391587587       -1.47649918968302
H            1.02447788784656        4.97499321609679       -1.59327811073643
H           -0.16531095157471        6.09777421005252        0.25352017838943
H           -1.73361912035986       -0.78089075411749        3.20735553786664
H           -0.16215199954833       -0.74911198313085        3.97801771346569
H           -1.38710890395862        0.46340913920729        4.42693255325703
H            0.67652535415776       -2.81474044605247       -2.73427572871776
H            2.31615510237242       -3.49243017601055       -2.86995446975256
H            1.37258992267046       -3.67541959255341       -1.37971215274285
