63
 energy: -105.901980459681 gnorm: 0.000443915536 xtb: 6.5.1 (b24c23e)
Si          -1.10115702237910       -0.41484799135865       -0.54752046562259
O           -2.58330255796068       -0.01116544902315        0.03975711730189
C           -3.77574148016603       -0.73878715032156        0.11673127929613
C           -4.78801119220141        0.06492185182487        0.89354857950307
H           -3.58172771628099       -1.69321137798656        0.62837444401955
C           -4.87078675410988        1.43837478219554        0.70831420987160
C           -5.66334688001665       -0.55683197224958        1.77300534822623
C           -5.81134090774116        2.18085114415108        1.39893460872260
H           -4.18362583480825        1.91627459718432        0.02717572327250
C           -6.60863437354642        0.18579804666001        2.45862767418337
H           -5.60098810354244       -1.62552755542702        1.92241752091188
C           -6.68381627256980        1.55592893920950        2.27396475600163
H           -5.86611487399263        3.24992028103745        1.25221337678090
H           -7.28536120141950       -0.30576666703894        3.14239508630396
H           -7.41950025888789        2.13506217884728        2.81281232111502
C           -4.33873016634629       -1.04129900463070       -1.29019555893244
C           -3.54326754695633       -2.03493969227814       -1.97408203879808
H           -5.36671178799983       -1.39908966118352       -1.18870410634271
H           -4.33604784445818       -0.11385710350813       -1.86826493247570
C           -2.85716930493317       -2.85822123862625       -2.50717846857751
H           -2.27354129535733       -3.57997254505361       -2.99525072966812
Cl          -1.42660920791945        0.53551114864887       -2.39550761875019
Cl          -1.03389766933896       -2.26941695202368        0.48239181337950
O           -0.29623747766099        0.61239810509461        0.54427361599588
O            0.46826389276015       -0.82560290169812       -1.38358073636273
C            1.96636553587698        0.94405549224284        0.01775219527262
C            2.20277708283098       -0.47008596427650        0.12267599354115
C            1.80391120546624       -2.63804683111056       -0.81081982390718
C            0.37589100048603        2.74873416785667       -0.02749290816319
C            1.36789498283144        3.65368009953307       -0.25529177464473
C            3.02636902639395        1.86324152597908       -0.26003144960749
C            2.72311325610646        3.24513170637810       -0.37358168846443
C            3.20378497296572       -1.01456423845120        0.98225133078877
C            3.52133395992594       -2.39218101397963        0.87982711140790
C            2.82583150481017       -3.17001006156552       -0.07973483260762
C            4.34562983492758        1.45106687009741       -0.52153097323152
C            3.74726232207716        4.16168311874894       -0.63949343270241
C            3.82331484927489       -0.25114600976892        1.98747692331214
C            4.49681798393072       -2.93868875326050        1.72551469962474
H            3.08487125039507       -4.20812266997919       -0.20688967133982
C            1.02382077835669       -3.41384570659064       -1.81260524322627
N            0.70055044940033        1.44136647917391        0.13508219469330
N            1.49181714845650       -1.32838173720145       -0.66103062612633
C           -1.06259092347582        3.10898034307009        0.07469385072338
H            1.12076447232285        4.69549880637986       -0.37469779731699
C            5.04051355200702        3.73387152801927       -0.83427370868414
C            5.33024640613916        2.37111792767893       -0.79566946819451
H            4.59014012018313        0.40124009674463       -0.50995137502197
H            3.50062962934071        5.21115396032272       -0.69853416672784
H            5.82479400624016        4.44652909945302       -1.03864023037019
H            6.33635329896575        2.03154486119163       -0.98936372001626
C            4.76365786734619       -0.81676003688255        2.81429686625718
C            5.11593611286421       -2.16011901410056        2.67419270869136
H            4.74392214185122       -3.98486798003479        1.62489491744287
H            3.54989489437677        0.78543439490506        2.10919340518843
H            5.22845229401339       -0.21918539249343        3.58360493135663
H            5.86343158646849       -2.58853025677000        3.32453201331311
H            0.03641755220479       -3.63517612503142       -1.40899181787931
H            0.88808165681933       -2.82223992672986       -2.71641616529234
H            1.53291347825640       -4.34375886137158       -2.04679757494582
H           -1.49902569115098        2.68322910784166        0.97648380868472
H           -1.18375282484194        4.18748154235196        0.07446213195440
H           -1.59918293660835        2.68290563918313       -0.77342545313951
