63
 energy: -105.905410502192 gnorm: 0.000702179728 xtb: 6.5.1 (b24c23e)
Si          -0.56567440773566       -1.72127533034938        0.39164361308726
O           -1.79360856626726       -1.45695340833483       -0.62485935661032
C           -3.17814049582580       -1.67308730920264       -0.54802961098115
C           -3.88987658155482       -0.34288668192129       -0.49092796944069
H           -3.41025414389494       -2.25645786749322        0.35209920983744
C           -3.30013411441417        0.78897870699086       -1.03971510488267
C           -5.13495026877433       -0.23508028834705        0.11590046262080
C           -3.93717115623851        2.01482895371371       -0.96748990289206
H           -2.33091115993551        0.69985692512715       -1.50716477932543
C           -5.77668738232314        0.98907518387392        0.17582403875392
H           -5.59351605516769       -1.11176557172228        0.54993092339342
C           -5.17750738882107        2.11684669508866       -0.36101433871902
H           -3.46368314404263        2.89077211856269       -1.38730888985707
H           -6.74424249308435        1.06502732834246        0.64981027323727
H           -5.67715406554348        3.07290703389775       -0.30556464080250
C           -3.61053130728971       -2.47181471563845       -1.79292195236745
C           -2.95683847048474       -3.76299863791111       -1.80214921611823
H           -4.69584865609308       -2.59793293939184       -1.78034428246125
H           -3.32437259977087       -1.91008422625548       -2.68578436966921
C           -2.38330720076660       -4.81206419811096       -1.76525739286534
H           -1.88758797797916       -5.73573047981962       -1.74088764733629
Cl          -1.74799439951946       -2.43735455380251        2.07802764144780
Cl           0.67703892908955       -3.36303377448882        0.51316692108647
O            0.39137983341047       -1.00785493826439       -0.98643079131482
O           -0.00503339620997       -0.46159760264410        1.41847494634754
C            2.09627371848874        0.33127567300734       -0.16432833331339
C            1.09230165752168        1.26589639113051        0.26342690351773
C           -0.96991882816278        1.64125748133049        1.43896402522204
C            2.58317837763851       -1.59842067508300       -1.48994857723117
C            3.92425647951453       -1.36856154523732       -1.36993961579273
C            3.48897075456337        0.55437270664785        0.05187104316067
C            4.42317551492192       -0.32081878319741       -0.55678488368083
C            1.14523515444621        2.64747805383378       -0.10057249292472
C            0.12020386078222        3.51657203361819        0.35494442311277
C           -0.92900259502659        2.97022524242974        1.14121114010658
C            3.96470909086402        1.55778916780713        0.91413549702089
C            5.79441662301569       -0.12164780851734       -0.34270631793562
C            2.11742894770726        3.16636330396854       -0.97426704951657
C            0.15125216440760        4.87077598683753        0.00243175268480
H           -1.71578121146406        3.61630665264370        1.49350653607378
C           -2.03783567277028        1.02282262646325        2.26710958217807
N            1.71119751875440       -0.78395787203522       -0.84624056696535
N            0.02733627702620        0.83354277516226        0.99878884109517
C            2.02312322808818       -2.67395135543976       -2.35189321902026
H            4.61785146898039       -2.01059584197445       -1.88741628904665
C            6.23443077978714        0.89099008605216        0.47619512350916
C            5.31391334693324        1.72194034489030        1.11676126881328
H            3.26062794304403        2.19852828110009        1.42175244565857
H            6.49687378736179       -0.78382160706252       -0.82605850377441
H            7.29150585989100        1.03716374492577        0.63851272896523
H            5.66454861111924        2.49542808616279        1.78285711105211
C            2.11697945525231        4.49883017172687       -1.31607322864723
C            1.14536895372834        5.36200261262081       -0.81333286945663
H           -0.62389417764078        5.52188800913905        0.37798286458521
H            2.87051705196500        2.51278109659230       -1.38426103244966
H            2.87429229038978        4.87622982657150       -1.98623579366282
H            1.16323458024879        6.40775126148241       -1.07958164595585
H           -2.61851146627877        0.31621183142414        1.67579113813486
H           -1.60036270963575        0.45843840675666        3.08939794236274
H           -2.70420108957373        1.78635438080379        2.65573927843828
H            1.09997736482492       -2.33499371604635       -2.81639777443123
H            2.74543331350943       -2.95628324310280       -3.11216661726858
H            1.78102024500995       -3.54615020932804       -1.74670461879543
