63
 energy: -105.901225258575 gnorm: 0.000978512608 xtb: 6.5.1 (b24c23e)
Si          -1.07037809357623       -0.48424988094653       -0.39636244341309
O           -2.61043652665734       -0.36980163021660        0.14126201172651
C           -3.83578477675142       -0.30319446912409       -0.53136036013330
C           -4.89229451804505        0.22741038516430        0.40324437258669
H           -3.73378293756073        0.35830660647035       -1.40259893369124
C           -4.88469920182950       -0.13976345256060        1.74230130173348
C           -5.90038654438819        1.05564406117637       -0.07111196386923
C           -5.87260845371673        0.31683735759329        2.59615099799398
H           -4.09039246715157       -0.77335138566658        2.10603639672727
C           -6.89120499689766        1.50727638321953        0.78287110889945
H           -5.90561113968942        1.34760415804765       -1.11190496649192
C           -6.87976306055919        1.13792983445639        2.11752843881873
H           -5.85915856077470        0.02839346634991        3.63726736172776
H           -7.67253161977967        2.15148215941312        0.40633777908385
H           -7.65321906356610        1.49187979609937        2.78348284129209
C           -4.24375347268520       -1.71144802404086       -1.01933648397692
C           -3.31822767571960       -2.19837840725777       -2.01617781967084
H           -5.25265952634474       -1.66509532492997       -1.43676816899171
H           -4.24099180003798       -2.38800223982356       -0.16046367201819
C           -2.51083484147628       -2.56074278130527       -2.82229264248353
H           -1.83345831522033       -2.90035898890855       -3.54734329129123
Cl          -1.38240163676220        0.78443232733184       -2.09222831940184
Cl          -0.84135467316063       -2.29825549934925        0.71344953980163
O           -0.28735736362593        0.49529816450336        0.75605885907479
O            0.41717073225000       -0.84796068133375       -1.30923845599735
C            1.91535138896740        0.93515837631577        0.08859234317938
C            2.21406228909911       -0.47329019964213        0.11526828276903
C            1.82829566160601       -2.63609940510078       -0.84223681734638
C            0.29597627464390        2.69582889129573        0.33568462291863
C            1.24354714262012        3.64129034335109        0.08155215525986
C            2.92030588044566        1.89874548075487       -0.23618570353637
C            2.58315086538558        3.27719332112877       -0.21646667603140
C            3.30214630670889       -0.99618746074985        0.87705927380672
C            3.66225104232133       -2.35802525856452        0.71539730901083
C            2.91777494274964       -3.14537669683178       -0.19936685197863
C            4.20923985444834        1.53586499884559       -0.66772158322020
C            3.55800591007833        4.23410419167336       -0.52447128955779
C            3.97666370660753       -0.23082596581354        1.84522369637213
C            4.72625892675165       -2.88280063055488        1.46163490663710
H            3.19791150395450       -4.17290706688935       -0.36179773376940
C            0.99601341222539       -3.41541173274775       -1.79661941437607
N            0.65713113695521        1.38907722917045        0.35748019923047
N            1.49213847199030       -1.33851799455008       -0.64938173907923
C           -1.12978848896764        3.01183036459388        0.61525104704004
H            0.96670043155424        4.68242403621228        0.07471413924517
C            4.82831264275801        3.85082880326901       -0.88853633025432
C            5.14275511475764        2.49561240003799       -0.98033849112470
H            4.46853625653958        0.49314274123801       -0.75723860140109
H            3.29060291081174        5.27924371408769       -0.48027216175414
H            5.57443823453207        4.59419908562705       -1.12429039431597
H            6.12651617429174        2.19465839188629       -1.30707119377666
C            5.00652269743813       -0.77526180641809        2.57372202352560
C            5.39624406984445       -2.10009779028070        2.37196453033877
H            5.00302774086453       -3.91604501311496        1.31513820995462
H            3.67690938912160        0.79119597654370        2.01666676590486
H            5.51358437340092       -0.17499123722803        3.31378674176978
H            6.21316902845558       -2.51172670648795        2.94477766902586
H            0.01871512930954       -3.60340752832646       -1.35353378135202
H            0.84409673173143       -2.83967930612599       -2.70764110789218
H            1.47445916332968       -4.36119221220827       -2.02989097606628
H           -1.47342377474161        2.47714898670651        1.49884087144614
H           -1.26111066654860        4.08054130044221        0.75221958944341
H           -1.74295134231373        2.67847744409268       -0.22239301808146
