63
 energy: -105.902598995587 gnorm: 0.000767220587 xtb: 6.5.1 (b24c23e)
Si           1.08984303550039       -0.18099606180559        0.57502217006005
O            2.67618607157998       -0.27397736983771        0.84857066756481
C            3.72336981032530       -1.09591470267665        0.40215801964341
C            4.71022548357946       -0.28419942840736       -0.39882708412678
H            3.32304671395910       -1.90782443216744       -0.21559556833679
C            4.83766408778939        1.08137350541786       -0.18671246974222
C            5.52052108103226       -0.90772038720430       -1.33899423715178
C            5.76036068791595        1.81569979275516       -0.91083899269974
H            4.20239560433382        1.56003574667364        0.54286001290927
C            6.44809052060685       -0.17353032604202       -2.05584931250789
H            5.41820222538824       -1.96995735643730       -1.51081863817058
C            6.56921301126662        1.18984937526783       -1.84383853678905
H            5.85027561855821        2.87910175202248       -0.74296526271859
H            7.07518242675222       -0.66566925228846       -2.78505147743766
H            7.29154081550011        1.76252718894206       -2.40709664203987
C            4.41423407226400       -1.70066583686924        1.64078967074925
C            3.52300511083527       -2.60470887207162        2.33365006047928
H            5.31334172759416       -2.23487578463278        1.32347081899969
H            4.69938872864517       -0.88472844500564        2.30979966851512
C            2.74602246523794       -3.33670306217347        2.87468047001862
H            2.09518954653801       -3.99106026601168        3.37305230805918
Cl           1.10251038461064        1.48401533801582        1.93640280997501
Cl           1.01803933502513       -1.96322969661838       -0.73201667812903
O            0.39180565774955        0.67099419255281       -0.73346387051348
O           -0.33084778239743       -0.66596339852858        1.41042737927605
C           -1.84758333040899        1.01735552892234       -0.15125699310053
C           -2.07997375657544       -0.40643154066036       -0.11142784372829
C           -1.61158335823935       -2.53383668118909        0.89956573489913
C           -0.36946707287100        2.85729941963895       -0.60068505320104
C           -1.38334197198469        3.75145172120667       -0.42916281589608
C           -2.91418750163644        1.93273625820219        0.10552926419896
C           -2.68169019589854        3.32364221394434       -0.04947381201815
C           -3.12228483903223       -1.00099351776395       -0.88608638728900
C           -3.41922062933117       -2.37610310955624       -0.70357787003768
C           -2.65266070610412       -3.11205924075092        0.23690993392090
C           -4.16560068903505        1.51552010014463        0.59530727503531
C           -3.71914221416008        4.23125717967719        0.19986526982268
C           -3.80664644017628       -0.29485871108053       -1.89220962349611
C           -4.43426103252639       -2.97074824167336       -1.46404167734092
H           -2.87343480485786       -4.15422624785593        0.39784540915662
C           -0.73701656853404       -3.25568789113341        1.86114187241797
N           -0.62672267517016        1.53387239572320       -0.46904319860889
N           -1.35305937492365       -1.21916712986654        0.70526241274491
C            1.02181205161896        3.24668017505946       -0.95033769492794
H           -1.18885239896662        4.80439036231800       -0.54755114572307
C           -4.94859193773464        3.79049657382334        0.63071428671145
C           -5.16146566080949        2.42884473438514        0.84583882435801
H           -4.34379191798441        0.46796440198691        0.77970384083215
H           -3.53180917646390        5.28485328407065        0.05712141576963
H           -5.74280599207232        4.49575357231371        0.82262343969995
H           -6.11484649985158        2.08886535017190        1.22069738460768
C           -4.78767326902038       -0.90739765523809       -2.63432926566241
C           -5.11808100460377       -2.24420259447142       -2.41067247688985
H           -4.66192971688559       -4.01334960220418       -1.30041007843718
H           -3.55319024116583        0.73582447267083       -2.08464537329398
H           -5.30115637158792       -0.35074671182982       -3.40350371604866
H           -5.89670810987546       -2.71007267416759       -2.99516279703583
H            0.26824956567796       -3.33291850804086        1.44576818651810
H           -0.66379438652044       -2.69797297292020        2.79376385584468
H           -1.12683659840855       -4.25089126714363        2.05099928178621
H            1.38923653864752        2.64809756761843       -1.78187492548569
H            1.06650940660127        4.30092673214651       -1.20373871900794
H            1.66586844067757        3.05333804065138       -0.09260250697969
