63
 energy: -131.232973505606 gnorm: 0.000988068490 xtb: 6.5.1 (b24c23e)
Si           1.16925582518129        1.34373841408552        1.24651002508067
O            2.37744932791050        1.51142434083196        0.20199055578904
C            2.47794622243659        1.50140074606666       -1.21512456051822
C            2.38188698036214        0.08157392938650       -1.71416039902501
H            1.65805138801950        2.09287768249531       -1.62958093421860
C            3.30382140408024       -0.86781288960269       -1.29019169930325
C            1.34706752018907       -0.30989964995086       -2.55378184186428
C            3.18262543942993       -2.18868559237584       -1.68491474297026
H            4.10783497632657       -0.57340967634380       -0.63415923480489
C            1.22130424443910       -1.63283034461494       -2.94169549764224
H            0.63527716610132        0.42508325238468       -2.89822342970567
C            2.13665371616667       -2.57583900572316       -2.50569645846933
H            3.90517891501262       -2.91718700338598       -1.34710165829559
H            0.40509296630083       -1.93025802262234       -3.58457970635349
H            2.03621333411476       -3.60757665868942       -2.80973946866532
C            3.81633348493772        2.15894470011126       -1.58354907101605
C            3.76667140845095        3.58366731174429       -1.33164669402535
H            4.02348420867842        1.97552097245048       -2.64138625752795
H            4.60975633076809        1.71509228418007       -0.97906801565836
C            3.68102737930443        4.75760675467460       -1.11811526069513
H            3.62583029171893        5.78738819941197       -0.92795714416300
Cl           2.37613376250309        1.44586218181104        2.90209875587243
Cl          -0.26996973725119        2.66072134959166        1.89541574467711
O           -0.01379056877866        1.10624483843372       -0.44807369326992
O            0.55890865220052       -0.20497361883993        1.67597476094624
C           -1.82179028766450       -0.15539082192589        0.18104071821878
C           -0.95161092782164       -1.30063197809861        0.20772044318783
C            1.04902010917548       -2.34440625994376        0.97083926787076
C           -2.08437449379645        2.08996282061131       -0.52823876665133
C           -3.42447903944546        2.07886329937176       -0.27576362280938
C           -3.20722470106192       -0.21223160327557        0.52604399356204
C           -4.01531860717438        0.93612795300711        0.32296953004067
C           -1.27230061924580       -2.48102359835931       -0.53878974586441
C           -0.40148910643501       -3.59894980203883       -0.48852173494423
C            0.76581268045850       -3.50483224786055        0.32397843976496
C           -3.77665890278137       -1.33705291522231        1.14434946210763
C           -5.36644235376447        0.90596917401804        0.69393517754131
C           -2.37729788406413       -2.54513869956963       -1.40312521288531
C           -0.68719506549101       -4.74567611653579       -1.22975993052332
H            1.42593069349704       -4.35095652958662        0.41046568935112
C            2.23303810926804       -2.25224946298688        1.90675577109734
N           -1.30265092521864        1.01917895243563       -0.24808335893278
N            0.23421010145321       -1.26090441884912        0.88901887869846
C           -1.43498102406762        3.19254696414894       -1.33033239936028
H           -4.02979796680564        2.93579203594950       -0.51945837248812
F           -2.32750949200467        4.14756913487934       -1.62953650520706
F           -1.01086323290343        2.70233052691020       -2.51502980375250
F           -0.39433329375850        3.80646038659290       -0.78389760491839
F            1.85247515528073       -2.05728342282816        3.17211817339946
F            3.11182953182080       -1.30678417492855        1.58819362696472
F            2.92081194735419       -3.40833607856706        1.89981197574046
C           -5.90440352079886       -0.21805369504694        1.27525804040280
C           -5.10265338328301       -1.33608550271891        1.50930446182595
H           -3.16258019548575       -2.20205515760202        1.33977252600547
H           -5.97147476981320        1.78281241279339        0.52257114589392
H           -6.94400659921617       -0.23447887505033        1.56353821764766
H           -5.52498136225530       -2.20558669789887        1.98881722653761
C           -2.63381298081990       -3.68424472730154       -2.13611428229253
C           -1.80124568734821       -4.79445233085428       -2.04294881227022
H           -0.01881215150784       -5.59003315953841       -1.16112421710700
H           -3.02953366155655       -1.69296534381721       -1.50453698028092
H           -3.48787855922808       -3.70809198465723       -2.79544762278504
H           -2.01700117209302       -5.68248655116551       -2.61614286696200
