63
 energy: -131.214922796965 gnorm: 0.000475067384 xtb: 6.5.1 (b24c23e)
Si          -1.15058706521178       -0.84989973328979       -0.22819557359253
O           -2.61814479666433       -0.43365651850950        0.34034754179626
C           -3.61689503468802        0.46977917401853       -0.05901841963933
C           -4.95679063263129       -0.06173986558575        0.39335904079752
H           -3.41130272366977        1.42385947897298        0.44132401300557
C           -5.25375677319743       -1.40832991384975        0.23074521104653
C           -5.91164785623834        0.78733196167587        0.93422356841516
C           -6.48939133945778       -1.89948361304722        0.61142358385911
H           -4.50507025632374       -2.06577778245090       -0.18471502093570
C           -7.15039294809809        0.29583844668187        1.30768641964602
H           -5.68352222995448        1.83588810253074        1.06425758190032
C           -7.44099904909403       -1.04821980692137        1.14764689371017
H           -6.71123534222557       -2.94907143675159        0.48638566685852
H           -7.88885470511270        0.96306778409849        1.72802097511245
H           -8.40690491505510       -1.43156666520251        1.44256692541269
C           -3.69688345328683        0.70833923268959       -1.58258276505602
C           -2.47811530922615        1.22269462249669       -2.16429566771353
H           -4.50665236650061        1.42113419179663       -1.75958891879394
H           -3.94109565592618       -0.23783720905992       -2.07141865537422
C           -1.46596786071462        1.63381969816443       -2.65564383230950
H           -0.58954323605722        1.99163567315984       -3.10851212792034
Cl          -0.66758992550122       -1.97753583873123        1.41418748812451
Cl          -1.75973579558273       -1.79536861325347       -1.95757321503097
O            0.55189295445528       -1.17134229664514       -1.03798644861210
O           -0.53173205998148        0.73059180640728        0.25609739741736
C            2.21754286745807       -0.22836874873108        0.24539421130551
C            1.79911852360474        1.08150562725750       -0.17364217968901
C            0.24592365373053        2.86546179122749       -0.06225864250705
C            2.09534204590452       -2.57536042176178       -0.06366556677425
C            3.16630596905767       -2.79979202341778        0.74732858155750
C            3.31274678943173       -0.40101657528566        1.15325520541007
C            3.78138116740424       -1.71206515269025        1.42188176882529
C            2.78115121659697        1.98489789391969       -0.70838674679595
C            2.45554914462712        3.35004872813051       -0.89615959224374
C            1.16783582612849        3.78087507347858       -0.46596536345867
C            3.88043734646004        0.67079150542807        1.86098221651954
C            4.83343273259694       -1.90286862680193        2.32644810417037
C            4.03883323179584        1.53771732534093       -1.14319092119067
C            3.39030649753531        4.22690987818332       -1.44929326904083
H            0.93010914864394        4.83128782535086       -0.45991063823376
C           -1.06241178698125        3.35256377088460        0.52221236508737
N            1.62041600331129       -1.32367438669211       -0.27310354299298
N            0.51137731026943        1.52659218616655       -0.04618641595486
C            1.49810663214260       -3.68383087977223       -0.90261660011763
H            3.54012829863750       -3.80005063987030        0.88793353712701
F            2.18862212924097       -4.82369693730533       -0.71740346254948
F            1.60621794343946       -3.40215698068085       -2.20940394530889
F            0.22915957289430       -3.97624878474543       -0.65677581202464
F           -1.42304103028363        2.69497252489965        1.62347012294935
F           -2.10011766494687        3.33892447374705       -0.31686095827251
F           -0.93033999424125        4.64053121957114        0.89931303741256
C            5.39577311819128       -0.83006455405659        2.97835574686632
C            4.90530575882912        0.45590510641367        2.75318864961683
H            3.50477326593665        1.67029535914813        1.71028510432108
H            5.18787202507564       -2.90588136400645        2.50645235074747
H            6.20484433424995       -0.98171803928872        3.67574833214009
H            5.32763393721799        1.29123993900318        3.29004770499001
C            4.94416640789449        2.41808452754610       -1.69557599127904
C            4.63012427131516        3.76611058737181       -1.84068425065435
H            3.12462004211051        5.26586472604096       -1.56906042935502
H            4.29520884419632        0.49382512323726       -1.05818362707802
H            5.90334297565410        2.05241644326727       -2.02801037493701
H            5.35004382081418        4.44505160009691       -2.27001237071194
