63
 energy: -131.239665790220 gnorm: 0.000791859312 xtb: 6.5.1 (b24c23e)
Si          -0.31825840277987       -1.84156743459864        1.08308009103110
O           -1.17309956641619       -1.25345745305757       -0.12701018418950
C           -1.82356890265914       -1.69147351215045       -1.31738035029763
C           -2.69857910365036       -0.54655109472120       -1.76678367466029
H           -2.44523950392308       -2.55688193183451       -1.05317894817274
C           -2.14566677102766        0.57651935450680       -2.37077914896736
C           -4.06772383314601       -0.59510562728936       -1.53767760615206
C           -2.96306784303921        1.62009097456413       -2.76809451656088
H           -1.07991269785813        0.64655047160313       -2.51804584003814
C           -4.87946195678900        0.45655081937981       -1.92495689205945
H           -4.49941861898672       -1.46073920973658       -1.05597514353767
C           -4.32864929841314        1.56310278410433       -2.54839406886303
H           -2.52711104343666        2.48059731269456       -3.25235777396604
H           -5.94310699258754        0.40832855648070       -1.74410073159906
H           -4.96325428753279        2.37908493459250       -2.86170629334554
C           -0.78855421257501       -2.10255411561154       -2.37036054285038
C           -0.19846086891266       -3.37939284907045       -2.03363216303976
H           -1.28109664241893       -2.17011773346080       -3.34283975652906
H           -0.01019389696402       -1.33737635571207       -2.42674330603100
C            0.24281086447762       -4.44065367681181       -1.69959460692506
H            0.66223617161626       -5.36592384618199       -1.43925803974017
Cl          -1.19130758279556       -3.29101099670211        2.13265538892174
Cl           1.57015792634279       -2.37375523543421        0.66704617201056
O            1.01119693333860        0.66382999155507       -1.77763128761432
O           -0.25445511076704       -0.48382152844036        2.06428093089551
C            1.46973140407874        0.89252997407116        0.45866207898239
C            0.13050855191351        1.38628030908168        0.64954850329935
C           -1.94640933429677        1.12505088278891        1.81318123251024
C            3.09045094595518        0.09693243154865       -1.06485713806062
C            3.99624300084360       -0.14594510374228       -0.07370874680902
C            2.37877781988792        0.68322095504986        1.53604627808306
C            3.65926559504164        0.13248865674396        1.26835438278655
C           -0.42314325924291        2.46778192763655       -0.08474994420933
C           -1.77652692090467        2.84618683049875        0.13154886513348
C           -2.52269709572707        2.13608321586977        1.12433832143884
C            2.07555114929304        1.04823097195172        2.85975595121681
C            4.55389005110802       -0.10333947340642        2.32458655342055
C            0.34014719736313        3.23269808963222       -0.98496433400904
C           -2.33349975327228        3.90086056771281       -0.58316851757844
H           -3.53924115758388        2.42521763535185        1.33423555024578
C           -2.70841538574460        0.35859505877619        2.86121325278416
N            1.83433182244292        0.57325861949213       -0.81798267555306
N           -0.64714089895074        0.76155863194430        1.60604615792573
C            3.38580219184296       -0.19337613871004       -2.51341449063717
H            4.96522039594962       -0.54972072949594       -0.31712709257206
F            4.64182169068147       -0.64626041543754       -2.66930214065553
F            3.29110284726392        0.89817510556820       -3.28637262776508
F            2.58639513653363       -1.12455286521956       -3.04391627836945
F           -1.99670972479705        0.13098478575046        3.96991752405642
F           -3.14222324263609       -0.83167910332596        2.41818944878015
F           -3.80444058087237        1.02713428393148        3.24870669683782
C            4.20936347442132        0.21992069868710        3.61154590398368
C            2.97145352465572        0.81447925020363        3.87310860478427
H            1.13398161441199        1.52310357302357        3.08454567158846
H            5.51365674731751       -0.54321838689460        2.10050413450851
H            4.89490917827674        0.03180279687552        4.42343662871698
H            2.71810009741522        1.09522361578082        4.88391446818305
C           -0.23600825871224        4.27026431941913       -1.68546570582258
C           -1.57374665193023        4.60221151229563       -1.50145355227713
H           -3.36605597989000        4.16317607663859       -0.40981036481771
H            1.38698539592273        3.02302199575685       -1.12457836806056
H            0.36581903329748        4.83796426826027       -2.37878120141667
H           -2.01173838047600        5.41625057721900       -2.05815173837510
