63
 energy: -131.224934768727 gnorm: 0.000696853450 xtb: 6.5.1 (b24c23e)
Si          -0.96724472464654       -0.69595962610175       -0.10242075934728
O           -2.50262423085218       -1.12580658968190        0.10411552614161
C           -3.66503266648203       -1.00893779291719       -0.68185540015124
C           -4.80722542096138       -0.52994691179964        0.17508209724028
H           -3.49018167543402       -0.29531720732765       -1.49424220691166
C           -4.85997754558580       -0.84666973895616        1.52494128818498
C           -5.83320884543636        0.21398021426943       -0.39258551708744
C           -5.92418297314831       -0.41916079277697        2.29914910789137
H           -4.05467009586217       -1.41496198858254        1.96388450275339
C           -6.90041883658903        0.63281359737449        0.38101435679579
H           -5.78887431435073        0.46931737865317       -1.44163225932312
C           -6.94754833692611        0.31774306968647        1.72869077029127
H           -5.95438972269750       -0.66339549172136        3.35090086053059
H           -7.69433947125742        1.21223029074126       -0.06726655614965
H           -7.77897994042861        0.65018914512486        2.33296109314830
C           -3.98141870599976       -2.39474012671789       -1.28047605104955
C           -2.90243952811781       -2.82514963636994       -2.14315890449385
H           -4.91636870296421       -2.33564930553379       -1.84279695771771
H           -4.09898175641174       -3.10861071182456       -0.46094733460485
C           -1.96914834857018       -3.13378819443242       -2.82532228109752
H           -1.16334262566371       -3.41349234804741       -3.43556083974839
Cl          -1.19974983051963        0.26968766731869       -2.02305848317677
Cl          -0.52934929582232       -1.80729559894959        1.67324804145526
O           -0.44455211617175        0.73267673617141        0.73247103504602
O            0.59216898867740       -1.14010635853482       -0.80760347284078
C            1.69074392202905        1.24122328543466       -0.06484485910136
C            2.19550419161045       -0.01768599634207        0.43572861779789
C            2.17712639952389       -2.39713788766613        0.31535851280490
C           -0.11763547582254        2.78306638900635       -0.27140344118566
C            0.65871313692741        3.71075168841621       -0.89269805256252
C            2.54674062533718        2.16595482790293       -0.74374053731218
C            2.02062901443853        3.41072500664463       -1.17981639371146
C            3.28776928514669       -0.07722952629637        1.35598566003821
C            3.80940602899824       -1.34241800080198        1.73351282257992
C            3.24676678591634       -2.51085328354855        1.14756676240017
C            3.87290133660076        1.84904294652600       -1.08332842298220
C            2.83772102164598        4.30806716569192       -1.87363651473325
C            3.80567595277157        1.07246327465450        1.97605796309122
C            4.85685906783530       -1.41359947763373        2.65767047854632
H            3.65750932384341       -3.47954815297757        1.37773307773161
C            1.63477684975220       -3.58588383704011       -0.44742265157558
N            0.38601790218579        1.58561595238989        0.10929909619311
N            1.66217050251218       -1.18718465069191       -0.00294500310361
C           -1.52271409434724        3.10787552525794        0.18852892508893
H            0.24618339304046        4.66379878190029       -1.17820139444873
F           -1.87117231654960        4.33908415063381       -0.21889891612590
F           -1.57934863887650        3.13552783306503        1.53066139685259
F           -2.48212218958582        2.29231997990495       -0.22736355832155
F            0.34280989782164       -3.84166023271370       -0.30926802139154
F            2.28599076520257       -4.70414002987176       -0.09066007530342
F            1.86539060505497       -3.43385083101541       -1.76506848320451
C            4.14539660283362        3.98430783133982       -2.16259193739750
C            4.65431862858322        2.74643686518205       -1.77564640998329
H            4.28028739336176        0.89041228259319       -0.80503106614183
H            2.42324578826924        5.25455930741716       -2.18436913970785
H            4.77028640563689        4.67947357752313       -2.70104127619869
H            5.66956365259993        2.48219613904472       -2.02824627619747
C            4.82868930424599        0.97392522594646        2.89099306699930
C            5.36728894505192       -0.26753877027100        3.22569466714411
H            5.25107221928568       -2.38227422177508        2.92292101173555
H            3.39041580625378        2.03856874644513        1.73714198242149
H            5.21116024859612        1.86728833704213        3.36001929668585
H            6.17277043448847       -0.32895190037900        3.94070943679264
