63
 energy: -131.225685770031 gnorm: 0.000584883941 xtb: 6.5.1 (b24c23e)
Si          -1.23118029638715       -0.05349156030661       -0.33322820753069
O           -2.52734817288730       -0.69379336705496       -1.04862711875372
C           -3.45620209313040       -1.66415335835836       -0.61762268147710
C           -4.51952280783263       -1.04530589176116        0.25244267232502
H           -2.93006187561515       -2.44523099909418       -0.05809213294945
C           -4.87756037036736        0.28534611668122        0.08944632551466
C           -5.15911581074438       -1.81118155042604        1.21834529074461
C           -5.85915814083146        0.84559582124867        0.88773945942144
H           -4.37165649637603        0.88399688520155       -0.65315352902488
C           -6.14485099853354       -1.25135978336590        2.01051017215815
H           -4.87253998612614       -2.84408041355664        1.35479758074623
C           -6.49630660188616        0.07835159450552        1.84742405928905
H           -6.12484682249270        1.88440994307567        0.75852604915534
H           -6.63437545195476       -1.85195209736637        2.76334348885820
H           -7.26165152496129        0.51623829298879        2.47155218010607
C           -4.07500311380231       -2.28300405690861       -1.88419487805626
C           -3.05897236613454       -2.98488437517369       -2.63890491306133
H           -4.87239310534188       -2.97118009881951       -1.59321989745630
H           -4.49760562555118       -1.48111209135435       -2.49440222227729
C           -2.17429298746285       -3.54016696950407       -3.22197759733737
H           -1.40940555312457       -4.02894857147222       -3.74643818055421
Cl          -1.08338739032425        1.23333549105017       -2.03383030976737
Cl          -1.50020440700755       -0.98765453331029        1.57518130969076
O           -0.47861631862922        1.19709681119819        0.69560840718643
O            0.24198614088801       -0.83861003637848       -0.79167031388935
C            1.71725708013609        1.38812669661385       -0.00288067342329
C            1.97776462539475        0.06176238929321        0.50559378784996
C            1.52411094604351       -2.27867297877595        0.46685364220321
C            0.21918947488151        3.23267313623260       -0.15847945150150
C            1.16269464696082        4.03128058932634       -0.72637687271510
C            2.73265666742784        2.16180793586036       -0.64723490613599
C            2.44629946204369        3.49836191211785       -1.02969759868036
C            3.03498370639577       -0.16961084059015        1.44465512469617
C            3.31667870033066       -1.49469324656812        1.86840498279655
C            2.54459882868339       -2.55864010664251        1.32085374203806
C            3.97823379928391        1.61638372204906       -1.00130127463727
C            3.42265627375844        4.25717464169856       -1.68441738018274
C            3.75306917692087        0.88281092966698        2.03689519567587
C            4.33105249065996       -1.72924726200227        2.80080160598311
H            2.76400136483081       -3.57737264943075        1.59298550621578
C            0.75972891215693       -3.38014152725379       -0.23530167145854
N            0.49460202400786        1.94975069706147        0.17139856272859
N            1.23796932818394       -1.00710857674437        0.09649215405231
C           -1.10040127171245        3.79369168134706        0.32380527620632
H            0.93637650841606        5.05693808158802       -0.96483223222862
F           -1.24179705862662        5.06610202264883       -0.07610369847808
F           -1.11391272652131        3.82844584950014        1.67038384793222
F           -2.19896316899452        3.15629197112748       -0.05367449548496
F           -0.55402112184194       -3.37392902522794       -0.05077351638185
F            1.19158398627200       -4.58251673850651        0.18144636364735
F            0.98133931354599       -3.35128014816981       -1.55761523033342
C            4.64850627936200        3.70820925226793       -1.98655487239638
C            4.91684186382834        2.38066345635893       -1.65520412389774
H            4.19592573508856        0.58738365217347       -0.76339886729206
H            3.19403925220827        5.27640068679179       -1.95456877693465
H            5.39688172313943        4.29733418116019       -2.49326451435088
H            5.86730616344703        1.94440370217595       -1.92098042996948
C            4.74180697481005        0.62695274985618        2.96050158450670
C            5.04540714381751       -0.67947169481333        3.33626433218150
H            4.53909766183771       -2.74532137855133        3.09828885059489
H            3.52319684781021        1.90207716690212        1.77150099537594
H            5.28004856966982        1.45052203966747        3.40355986459958
H            5.82597399295157       -0.86580117194523        4.05710915415004
