63
 energy: -131.229933843862 gnorm: 0.000767486539 xtb: 6.5.1 (b24c23e)
Si          -0.34837371414266       -1.94283914015018        0.69150744810682
O           -1.71458814662017       -1.08645246476447        0.45427123707489
C           -2.96513997716087       -1.47673683993452       -0.07349155837498
C           -3.38928327793253       -0.53550283437338       -1.17714570211276
H           -2.87285652547232       -2.48908723435400       -0.48922181633457
C           -2.56424818875208        0.49338046706227       -1.60523513239734
C           -4.62048381254903       -0.70459230898271       -1.80317646378856
C           -2.96606137105928        1.35877044307627       -2.60765002872234
H           -1.58923709011450        0.60517274018855       -1.16163142629476
C           -5.02405836534751        0.15803952872508       -2.80502513496979
H           -5.26222788462827       -1.52503353967607       -1.51807372766308
C           -4.20306840703146        1.20001595274662       -3.20461041309915
H           -2.30588426821186        2.15498024111252       -2.92187384892212
H           -5.98318035964208        0.01381819516313       -3.28022640954678
H           -4.52167625156349        1.87425199459344       -3.98548242583545
C           -3.99673572144038       -1.50894764146594        1.07143434233941
C           -3.61756650879762       -2.50066558477389        2.05584415466549
H           -4.98016940320345       -1.75466993941030        0.66694957210864
H           -4.05044168609134       -0.52249696742484        1.53932271215051
C           -3.25072954767694       -3.32869006495878        2.83688101374865
H           -2.93406016984458       -4.04630211034004        3.53247617925190
Cl           0.12749801174131       -2.95723917259110        2.37369553089794
Cl          -0.73503579111819       -3.57516909315311       -0.56510949501857
O            0.83715759445959       -1.44312432229041       -0.47142218220570
O            0.26830329615023       -0.40011343592896        1.72691281362600
C            1.92884105827391        0.62810229934053       -0.08735030348379
C            0.68298703742493        1.27543209260246        0.20540272536744
C           -1.16065878161669        1.41862320074590        1.68452554708339
C            3.13745784187352       -1.37745514437331       -0.53064987876164
C            4.32736533013647       -0.72429606301972       -0.58757500957118
C            3.16253935347964        1.36222477038316       -0.09389076565067
C            4.37731967521317        0.68208562539006       -0.36519688132046
C            0.22788568891072        2.44362972620540       -0.48618052460086
C           -0.93361469810692        3.10993737582292       -0.02033561678436
C           -1.58562707016077        2.59120814282127        1.12817131861951
C            3.23387576611406        2.72255380070860        0.24865561304907
C            5.58651197735868        1.38100415671071       -0.37790587264172
C            0.82954454054595        2.89043248554258       -1.67339753629870
C           -1.40980503346057        4.23541502751753       -0.70442440508700
H           -2.43693239371734        3.10745831209552        1.53975923789327
C           -1.80199174315953        0.95113643636400        2.97029765890954
N            1.97040261324829       -0.72296824131058       -0.29408487383911
N           -0.07710861802280        0.76245035067422        1.20968685082273
C            3.05186224007214       -2.86247026126414       -0.80854911271920
H            5.23654537215284       -1.26774642330292       -0.78247655362607
F            4.28185890872068       -3.37025075832639       -1.00052370478340
F            2.36599025998540       -3.13076626916235       -1.92136186386578
F            2.51764771209790       -3.55506676489882        0.19378141116515
F           -1.81925281928028       -0.34299847505803        3.22103982966583
F           -3.08043525644149        1.36989362150758        3.02778486668649
F           -1.18033169464331        1.54213880612401        4.01484542032927
C            5.61848263103903        2.72901182209246       -0.09055443156493
C            4.43958925999875        3.38929683649892        0.24316364241251
H            2.33933363192854        3.25471026199171        0.52768374163740
H            6.49445734802959        0.84508518506012       -0.60722843313544
H            6.55424175782144        3.26531181299558       -0.10155973744173
H            4.46713548761383        4.43458147630400        0.50947519950143
C            0.33263024081315        3.98879407618668       -2.33664197550662
C           -0.77837604688723        4.67464363334478       -1.84499747156052
H           -2.28671271382622        4.73963975627988       -0.32924897225843
H            1.68118227502575        2.36057360511446       -2.06993696989046
H            0.80229286692479        4.31639371537221       -3.25122115653061
H           -1.15198943943391        5.53815612083948       -2.37312125092529
