63
 energy: -131.228869321120 gnorm: 0.000978721830 xtb: 6.5.1 (b24c23e)
Si          -0.93443169635057       -1.24844078348578       -0.27355689451164
O           -2.37747217281414       -1.36809527119151        0.46072266671605
C           -3.69462175493810       -1.27550050476135       -0.02926301830341
C           -4.43037609068359       -0.14247141631771        0.63656390750149
H           -3.66683563462459       -1.11834727306909       -1.11396204595687
C           -4.21082788342852        0.13953582896733        1.97760065741808
C           -5.35073719788453        0.61227890380660       -0.07792179060859
C           -4.90044169110753        1.16662137714139        2.59577931396726
H           -3.48126438538626       -0.44037108312444        2.52180504373965
C           -6.04344887091982        1.63629902780407        0.54308880031364
H           -5.51477649437990        0.40074844819753       -1.12497843159604
C           -5.82005327121435        1.91463952961327        1.88092214527968
H           -4.72008796925365        1.38405968342834        3.63840776667412
H           -6.75506348499815        2.22236310454213       -0.02034245767312
H           -6.35921894592145        2.71679389883595        2.36354933053442
C           -4.40955221704215       -2.61175803366572        0.26261877962692
C           -3.71609226860617       -3.70086535114454       -0.39021834292992
H           -5.44012857771652       -2.54938668562060       -0.09491142229411
H           -4.41504986780120       -2.77805640049446        1.34295902838184
C           -3.07829333581377       -4.55382741616409       -0.93553770863430
H           -2.53321412433189       -5.31956598620251       -1.40049763846778
Cl          -1.39270680002828       -1.56331307383665       -2.22080296752426
Cl          -0.04193657182974       -2.36536928575489        1.19324869136982
O           -0.63671081926239        0.36968896276950        0.22739425918059
O            0.95505683286751       -1.09093234088556       -1.15052263616346
C            1.50257972912331        1.33923831174709       -0.16760285444463
C            2.18884056079097        0.17210351632086        0.31503297777583
C            2.69748089890594       -2.11028845502964       -0.06370847635725
C           -0.52903994862417        2.44017682945867       -0.75872478622006
C            0.11548408734158        3.57256389419814       -1.14172440145862
C            2.23751990011104        2.49300130630184       -0.60327454558998
C            1.53969566514648        3.62927699738024       -1.08809113654460
C            3.15221369901044        0.21268188198246        1.37041355582383
C            3.90729012682618       -0.95183649835122        1.66055352915820
C            3.69022059230130       -2.10921022062854        0.87042905484427
C            3.64094194618616        2.51566761283395       -0.65593948715684
C            2.24105632350032        4.75602358931043       -1.51811978154100
C            3.31414652295029        1.34200485578703        2.18996334741162
C            4.84159551491733       -0.92890136310985        2.70565214970099
H            4.28925681842706       -2.99052682443550        1.02689110062892
C            2.50136000732315       -3.27180614158901       -1.01023018696089
N            0.13827050474669        1.34955999027413       -0.29699866454185
N            1.94571029774459       -1.00903240231931       -0.30239755190706
C           -2.03852657938873        2.38088142860259       -0.72449909359399
H           -0.44151987731508        4.42181568056249       -1.49965632187682
F           -2.56799528383442        3.50302936270782       -1.23887746002325
F           -2.50286731792502        2.29603908352999        0.52677849421137
F           -2.55859012100796        1.37545235036282       -1.42752943775522
F            1.27883442565405       -3.78195087304226       -1.07790077422493
F            3.31612392563795       -4.28783391844249       -0.68019750273250
F            2.84926303982775       -2.91597090424497       -2.26031172283216
C            3.62109161217424        4.76732581157100       -1.51117249668165
C            4.31411314535142        3.63509912290194       -1.09698248511342
H            4.20385427658540        1.64669211629030       -0.35751011711078
H            1.68561977043725        5.61403003675316       -1.86410379598832
H            4.15900365523198        5.64050472220726       -1.84523384935480
H            5.39273208441916        3.62487534696993       -1.12757139001888
C            4.22644540232319        1.33327120931111        3.21836476793744
C            5.00468475134332        0.20191589009864        3.46963077267637
H            5.42028156089032       -1.81781473983296        2.90348465595594
H            2.71106710008978        2.21811193319034        2.01053933330675
H            4.33708177204362        2.20720774065640        3.84160782800985
H            5.72280570420418        0.21388286033083        4.27488271654708
