63
 energy: -131.234398594353 gnorm: 0.000700716508 xtb: 6.5.1 (b24c23e)
Si           1.17590687137500       -1.07631786253427       -0.36842233159936
O            1.84275701245382        0.29263853614074        0.21033231800609
C            2.86240533636871        0.43736087074655        1.17991737436387
C            4.17810380370127       -0.16967001305515        0.76482738253716
H            2.52685455802663       -0.04590632326246        2.10589497947309
C            4.57963294078789       -0.18318706759344       -0.56198739827749
C            5.01626995405239       -0.70234574096061        1.73572657697524
C            5.79856216070036       -0.73504299759757       -0.91538869568349
H            3.93195151980244        0.22197028859954       -1.32112645995498
C            6.23728679298580       -1.24534704147911        1.38197562825706
H            4.70212917907790       -0.70407550447039        2.76947692138854
C            6.63086551248154       -1.26417714498290        0.05445677546881
H            6.09453948263648       -0.75159863881612       -1.95338435572712
H            6.87926852910888       -1.66307128410077        2.14312261991351
H            7.58110951505222       -1.69631222775041       -0.22269544258945
C            3.03156777107823        1.94815642689129        1.42996136847171
C            1.87788940668755        2.48393454750195        2.11724105375111
H            3.92480731948882        2.10752792541572        2.03869392587711
H            3.16724046054200        2.44786938949508        0.46787125757389
C            0.90385424033809        2.85857138978121        2.70349726684898
H            0.06903772238953        3.21413093459444        3.22937110639594
Cl           1.69105402077629       -1.90524177741690       -2.14352528119811
Cl           2.08797504910748       -2.47736929419191        0.90587644504913
O           -0.29120763922195       -1.43190465041093        0.47855218225872
O            0.09326138237939        0.08539271468676       -1.47751520856394
C           -2.20089286737169       -0.12914041657069       -0.05815396195451
C           -1.43900558197319        1.08397899417798       -0.05994435248498
C            0.20790361060830        2.36762034182363       -1.17279100082409
C           -2.26674618305470       -2.51152496580053        0.02461566540922
C           -3.61458323908527       -2.54745336093802       -0.13828992590574
C           -3.62084782261782       -0.11067959058425       -0.28614997292952
C           -4.34128966341652       -1.33262914174115       -0.29845989657331
C           -1.80816386111611        2.23375943147114        0.71173505059308
C           -1.17466727228298        3.47425187039688        0.45380551244321
C           -0.18663614775806        3.52170692828679       -0.56353924414253
C           -4.32498821806948        1.06526162440357       -0.59279981415914
C           -5.72289644881653       -1.33410933994048       -0.50479110570862
C           -2.72223175036382        2.15247573507621        1.77387183217104
C           -1.53631525521924        4.60604129356815        1.19603140293206
H            0.26585544573423        4.46155958188206       -0.83116517173437
C            1.18873438771360        2.38443061146396       -2.32096852057080
N           -1.58064057370937       -1.33963132215249        0.07815259943230
N           -0.36508077204062        1.17518444538369       -0.88629651456792
C           -1.47177448400303       -3.78372932250230        0.22424094897914
H           -4.13389025280217       -3.49041454116931       -0.16989385703546
F           -2.27312209547171       -4.85609105108806        0.09257941295599
F           -0.94312679205815       -3.86856132558821        1.44564321140026
F           -0.49917734925585       -3.93655041987901       -0.67114957890145
F            2.31688972950770        1.71393458504956       -2.11930745979079
F            1.56052710941880        3.64921418395217       -2.59614223336037
F            0.63237019216690        1.91383093082730       -3.44345561068407
C           -6.39641712248886       -0.15516598328866       -0.74195168299881
C           -5.68549187660703        1.03924047696724       -0.80948693166866
H           -3.79988092788141        2.00280375922206       -0.67032918800375
H           -6.24976339761518       -2.27549969778581       -0.48554648662961
H           -7.46339755357628       -0.16010453154489       -0.89974217145170
H           -6.20121886397721        1.95804128692339       -1.04232166699428
C           -3.04309457082275        3.27293524869441        2.50575978808974
C           -2.46660516037594        4.50771734189769        2.20499352363201
H           -1.05924830700776        5.54794421392079        0.97410557326574
H           -3.16862222379066        1.20149603915632        2.01854483328606
H           -3.74210530791373        3.19391547397063        3.32416065949745
H           -2.73723643478594        5.38007415682992        2.77985432596930
