63
 energy: -131.229132343920 gnorm: 0.000798503721 xtb: 6.5.1 (b24c23e)
Si          -1.27661933055157       -0.12370059142719       -0.51060257575794
O           -2.16174015454974       -0.59445199631485        0.74511450137534
C           -3.25934644713133       -1.48113910493799        0.81089180108116
C           -4.51135785182907       -0.87451796068413        0.23310141321214
H           -3.01216219427917       -2.39525780278029        0.25957430771623
C           -4.73293648396101        0.49269165816105        0.30557572169051
C           -5.46539113524903       -1.69061980899034       -0.36026631757422
C           -5.89036504320477        1.03883623405697       -0.22050780173609
H           -3.98871261212399        1.12809811662551        0.75930212399640
C           -6.62614993846038       -1.14426438819391       -0.87593550519449
H           -5.28994874568693       -2.75433400241458       -0.42617038309515
C           -6.84003476266681        0.22208138051657       -0.80892655245762
H           -6.04826185213663        2.10569255138694       -0.16995780920452
H           -7.36193525275741       -1.78523099341494       -1.33904858129428
H           -7.74340937051726        0.64873660487315       -1.21949467830298
C           -3.45993166335887       -1.81733637006215        2.29986943798348
C           -2.30564640841674       -2.50791508451184        2.83247920297644
H           -4.34936019045960       -2.44265936405683        2.40766910499185
H           -3.60863450731861       -0.88361270161748        2.84729125428198
C           -1.33467278446111       -3.07449319600863        3.24209823527628
H           -0.49433430315280       -3.57196361540284        3.62503815199365
Cl          -1.42222628021587        1.64486084423687       -1.58906656934001
Cl          -2.11389576794044       -1.30166184633536       -2.04517754634819
O           -0.35694518593035        0.82310236992292        0.87662656977208
O            0.23899818359051       -0.86654976403785       -0.87865447413288
C            1.74651336051384        1.30835143410863        0.04853026439646
C            2.12576146301258       -0.05182735874774        0.29929588953834
C            1.56517212107190       -2.36862510602985        0.24939293746378
C            0.19563412053174        3.03265689433434        0.54143861014815
C            1.01900207702838        3.99991157412890        0.04927361470922
C            2.60376079135838        2.26256120277468       -0.58583236339784
C            2.22478811797857        3.62836841867396       -0.60348686137365
C            3.33696828523437       -0.36892774335357        1.00377249806490
C            3.63868875778348       -1.72489806800667        1.29338369563893
C            2.70693847132918       -2.72586607104756        0.89386562580438
C            3.76251255417388        1.87543475738241       -1.27790838809857
C            3.04293642456803        4.56569857484968       -1.24648456246769
C            4.20197831924356        0.61607521549983        1.50753675010622
C            4.81009104249817       -2.05426937884615        1.97899172091992
H            2.90733660247504       -3.76108302018881        1.11328080815188
C            0.60520654984857       -3.41885768247509       -0.26301052746409
N            0.52915345221288        1.72054242408357        0.48466771252437
N            1.28770729202488       -1.07385457570441       -0.04783717676827
C           -1.02226456398497        3.38030174375927        1.36661789103221
H            0.74620376802122        5.03883688092933        0.12776556466336
F           -1.19280618354154        4.71205547150307        1.40945021341245
F           -0.83600889128580        2.99475709511391        2.64225904428294
F           -2.18166348194664        2.87114578599020        0.97671097796227
F            0.61308960148506       -3.49229871633413       -1.59686955319989
F           -0.65213808364337       -3.24919452008382        0.13452390472097
F            0.97142456683427       -4.63588518285466        0.17732629524967
C            4.19061991347269        4.16372919876911       -1.88969631566210
C            4.54005891363593        2.81342984133035       -1.91652005403088
H            4.03504720351937        0.83244458335347       -1.31343762264463
H            2.74985843918764        5.60398063530738       -1.23789143539075
H            4.81500822575571        4.88895248103986       -2.38800822031438
H            5.42437974774382        2.50024032962652       -2.44940354461372
C            5.34612617303818        0.26879944751336        2.19281629268772
C            5.66806046906334       -1.06672155247890        2.41412393921858
H            5.02686730426888       -3.09430640233379        2.16805309887715
H            3.97025326070910        1.65866766056519        1.36587332344937
H            5.99414891668272        1.04593251600205        2.56761471008411
H            6.57221398089615       -1.32570395673397        2.94223521038761
