63
 energy: -131.232894091647 gnorm: 0.000792012788 xtb: 6.5.1 (b24c23e)
Si          -1.14239897958090       -0.23459970321986       -1.34356583296431
O           -2.40421296161250       -0.64385197908279       -0.44810990175397
C           -2.88039138528550       -0.36392938132792        0.85076163760486
C           -4.35297778689786       -0.04725664616400        0.78373900033322
H           -2.33532733748716        0.48588990838190        1.26655837832902
C           -5.15707447456405       -0.62315890843188       -0.18974186741184
C           -4.91748026141594        0.81054834946020        1.71933860606588
C           -6.51106033507310       -0.33916094024850       -0.22876383924721
H           -4.71042316777330       -1.27789694987200       -0.92223855449257
C           -6.27229562453429        1.08754981383800        1.68224332076358
H           -4.29043360575181        1.26445431185701        2.47383657375596
C           -7.07148790577499        0.51330812489079        0.70760610333001
H           -7.13002208086947       -0.78532529377978       -0.99312085193879
H           -6.70445513888398        1.75777408210176        2.41139025413935
H           -8.12840229612709        0.73465717111472        0.67612256881628
C           -2.63907286474908       -1.59959552648409        1.74263343263784
C           -1.26296216079824       -1.68382354353264        2.17567673721759
H           -3.28662028298438       -1.53539666433582        2.62099399130663
H           -2.90125319631811       -2.49090184585035        1.16817966626497
C           -0.12333940743965       -1.72455740404524        2.53988320073363
H            0.86738666876158       -1.76382294008278        2.88307293893924
Cl          -0.82376980281974        1.54829384770131       -2.33214083620528
Cl          -1.77869256859928       -1.31742719429069       -2.97755080127797
O           -0.37445281469585        0.65210957934592        0.32415475517099
O            0.33837620951062       -1.09542829300158       -1.36294378522337
C            1.86764452269532        0.93950354987087       -0.13235225003697
C            2.07825571007289       -0.45558503014906        0.12539701564856
C            1.34156460045220       -2.71546056851494       -0.08141213645792
C            0.41923813189624        2.79461363376130        0.14613639861158
C            1.39671282027791        3.68971449349261       -0.17078380460637
C            2.89946268403600        1.81966191486948       -0.59016369451912
C            2.65611861302744        3.21591124494460       -0.62175927552681
C            3.14155168558686       -0.89447231526692        0.98621159185131
C            3.30380738515578       -2.28031540228058        1.24602315743856
C            2.35782422141120       -3.18799863372253        0.68569664290920
C            4.11337854585568        1.33598955033931       -1.10401418229312
C            3.65137735395329        4.08219977344320       -1.09367774774797
C            3.98461791665417        0.00088932637091        1.66509818321791
C            4.33803369029714       -2.72513105765749        2.07210322144740
H            2.43595379550483       -4.24079130707691        0.89844461892470
C            0.34422919900286       -3.66105865619684       -0.71193850359734
N            0.63737204795410        1.45761648057372        0.10980309211809
N            1.21969797749857       -1.39532903558038       -0.37609118221851
C           -0.90821569463234        3.23448145255168        0.71511027835112
H            1.20453186219722        4.74786924310916       -0.11292296394225
F           -1.06105336954666        2.77067551510354        1.97106400201154
F           -1.99201439089150        2.86574729371110        0.04078788093242
F           -0.95966207196487        4.57151646235641        0.81201720033748
F            0.46523929578099       -3.71917613650701       -2.03946851279027
F           -0.92279501987068       -3.37102831319192       -0.42053301281893
F            0.54615421767799       -4.91399719660397       -0.26672608995181
C            4.84441581557190        3.58349936321539       -1.56089803847392
C            5.06636478384692        2.20587661042278       -1.57973227342655
H            4.29041539163441        0.27239488038942       -1.13345961314457
H            3.45714513643206        5.14357830355613       -1.09630697046133
H            5.60521318913272        4.25378225621736       -1.92978550952424
H            5.99099188080954        1.81850381661820       -1.97869840091812
C            4.98998086796203       -0.45962168465860        2.48816900316736
C            5.18842843862542       -1.82352586188669        2.67765102375854
H            4.45244403585168       -3.78560924199050        2.23589414983866
H            3.84385975317515        1.06299440761168        1.55091686490779
H            5.62388203940736        0.25053722089057        2.99643751904473
H            5.98662849923590       -2.17176532707427        3.31412842304378
