63
 energy: -131.232938262751 gnorm: 0.000701285554 xtb: 6.5.1 (b24c23e)
Si          -0.90831961903352       -1.49034522857258       -0.89386275342828
O           -1.44960001283858        0.01524007198096       -0.88440957412909
C           -2.75779929243549        0.57277453502191       -0.70863681953287
C           -3.43835305468019       -0.09439982182734        0.46009650717595
H           -2.57406539443537        1.62386855240698       -0.46094692559941
C           -4.40692174889251       -1.07737355204331        0.30737154530745
C           -3.00040717120448        0.23854036344777        1.73867207803633
C           -4.94338028123789       -1.70399436523076        1.41984243157871
H           -4.75145775675240       -1.36822640361592       -0.67321353687503
C           -3.53452609397904       -0.39430130145592        2.84579617188836
H           -2.22232360438240        0.97739607443342        1.86381236218033
C           -4.51057787328929       -1.36424671287397        2.68928665959039
H           -5.69824735095186       -2.46535885771181        1.28935253442097
H           -3.18340004987396       -0.13024811184864        3.83168506415250
H           -4.92918237079862       -1.85839472126510        3.55345010274487
C           -3.52238217062420        0.50207438559224       -2.03272552045120
C           -2.82979160975616        1.25461251028758       -3.05848964586805
H           -4.52254433008865        0.91627421869864       -1.88329517043341
H           -3.60252575182588       -0.53689813214590       -2.36117381593983
C           -2.22259374491934        1.86681039267458       -3.88718887031059
H           -1.71404842560477        2.39338295393079       -4.63731779751789
Cl          -1.11828468100308       -2.40360732009235        0.88759005461663
Cl          -1.53784743971316       -2.55074912977046       -2.45412670666599
O            0.71613950994500       -1.35997077312758       -1.22174666896522
O           -0.08635179059299        1.81141318563539        1.47033109782449
C            1.69128442048967        0.12823711454842        0.36264645584492
C            1.14376073443692        1.22858542750178       -0.37989761115561
C           -0.19961285780518        3.17398474920217       -0.34040742359877
C            2.20786287016613       -2.22065169153338        0.36101028734243
C            2.74148891214585       -2.16177805989457        1.60010847861463
C            2.27440220011954        0.24380521628089        1.65387412124846
C            2.74176022220124       -0.92382569943614        2.32059642656226
C            1.41918001080720        1.44871139285643       -1.76306696838259
C            0.82223858020513        2.55531626153073       -2.42207697613901
C            0.01799940697893        3.43082150329688       -1.66246114905372
C            2.46730356695438        1.48415021642959        2.28919907297183
C            3.25292040765634       -0.83617534306545        3.61197778057439
C            2.31910800730519        0.65494150176494       -2.49756348752579
C            1.08070897733557        2.78694635388590       -3.78301985604348
H           -0.41332921146075        4.30633504262859       -2.11963273177166
C           -1.01259015822747        4.09825295142983        0.52870995822143
N            1.66196165370316       -1.11723611291278       -0.23579531008382
N            0.28899053073183        2.06202947684094        0.28812415886605
C            2.26564367288888       -3.46291120373385       -0.48952541459036
H            3.20469842498139       -3.03235942407470        2.03497168420547
F            3.09377759635221       -4.37362492907135        0.03828510451478
F            2.72912116926597       -3.19613723778788       -1.71988918042398
F            1.08743305335653       -4.08015859448094       -0.64933408080728
F           -0.32876015487043        4.53169860444650        1.59454478591791
F           -2.15293178319478        3.55906783663063        0.97959022761716
F           -1.37562272215025        5.20122704713176       -0.15110951899939
C            3.34259516080025        0.38739381443514        4.24807152144135
C            2.97644400117282        1.54424258314353        3.56791744940186
H            2.23158838775913        2.40168301596003        1.77844536928504
H            3.58286057652476       -1.73730710395159        4.10667654213211
H            3.72593061853161        0.44852392894087        5.25468282640059
H            3.09823626359715        2.50573341971683        4.04269199885085
C            2.55237493787940        0.90059751828462       -3.82766781730406
C            1.92012865186291        1.96076139609882       -4.48325247493240
H            0.61430262711950        3.63693508081787       -4.25861551917090
H            2.84584123430587       -0.15376231341593       -2.01832273599511
H            3.23950235108348        0.27078087817639       -4.37147217987532
H            2.11280476796327        2.13511456879970       -5.53081661791076
