63
 energy: -131.234958505157 gnorm: 0.000911786197 xtb: 6.5.1 (b24c23e)
Si          -0.51242397601047       -2.00959962826510        0.14843141138018
O           -1.78259162054264       -1.03063053725310       -0.11659076816287
C           -2.83618500410761       -1.07188104544484       -1.06461810041547
C           -2.84396326032170        0.29370972449950       -1.71529134425230
H           -2.59593756526929       -1.83036264099466       -1.82110151753496
C           -3.81501864451351        1.25608582210877       -1.47960417057995
C           -1.76934480429531        0.60953507008085       -2.54145968602470
C           -3.72503415845450        2.50106266987679       -2.08083505225452
H           -4.65448039040867        1.04253399680064       -0.83655640786454
C           -1.67546119068866        1.85465674160666       -3.13312994540561
H           -1.00975611670204       -0.13823415105950       -2.71877116436160
C           -2.65933655734249        2.80327925824500       -2.90871815998714
H           -4.49527549229622        3.23699774160101       -1.90159499962029
H           -0.83977096092675        2.08372177680030       -3.77787171926262
H           -2.59566934430671        3.77260628327209       -3.38043814746543
C           -4.13923804119244       -1.47770789796269       -0.36839775811163
C           -4.02252762355860       -2.83318738046411        0.13076333204294
H           -4.95914072286471       -1.41755154541585       -1.08867399120975
H           -4.33985813331652       -0.81065725956743        0.47302196360789
C           -3.87599143366316       -3.94611842452801        0.54196022691135
H           -3.75417709764493       -4.92216623802646        0.90424039730409
Cl          -0.43434949331897       -3.35128223819044        1.65041399974824
Cl          -0.69904875073986       -3.31666572700061       -1.47500612427129
O            0.88267788048367       -1.38826449559459       -0.66246986570226
O           -0.05323646480473       -0.70955436621766        1.56494285391369
C            1.84594562074363        0.60561285762548        0.19514263882530
C            0.55299652868863        1.19020228061375        0.40346331511157
C           -1.45727875978381        1.11091620754997        1.65136497222533
C            3.15472383151498       -1.32046860350844       -0.32234562951322
C            4.32464179213816       -0.66723926319971       -0.10107618434000
C            3.05069225083217        1.33446837882207        0.47889269687956
C            4.30731150973732        0.69677507774764        0.31248885231395
C            0.16017544367380        2.45011472534796       -0.14987732077771
C           -1.05773869100389        3.03982775536281        0.26970449084675
C           -1.83773530972180        2.35243877514876        1.23553878617817
C            3.04167245642447        2.63489908731257        1.00956252791365
C            5.48908784803435        1.38821315632228        0.58696258391730
C            0.90113486653736        3.08272311229055       -1.16052315063317
C           -1.45133984606270        4.27254378695673       -0.26600350812337
H           -2.73591198684710        2.80428633545308        1.62195497676895
C           -2.19507069570872        0.38474373327521        2.75207322242321
N            1.95200391020496       -0.70311103921728       -0.18788190050289
N           -0.31815721950805        0.53040694238026        1.20836814830878
C            3.13918591296751       -2.75387307503075       -0.80591943410996
H            5.26456058228934       -1.17974567040303       -0.21818339394764
F            4.38906266589059       -3.24845839540552       -0.83613198253746
F            2.67071690681706       -2.86293010627663       -2.05131829018281
F            2.43685063105658       -3.56677605018052       -0.02041284721415
F           -1.41195979172283        0.24162128997181        3.83136912743171
F           -2.67799704765267       -0.81138028435384        2.44759410772608
F           -3.25232834284565        1.11530120281343        3.15850167920648
C            5.44948408022480        2.68322061805910        1.05897765370789
C            4.22001322264716        3.29317965803375        1.28777007142559
H            2.10443690487558        3.12627922749593        1.21229607062351
H            6.43215150311590        0.88703211766048        0.43294626698068
H            6.36480931978407        3.21267019553232        1.27180096540861
H            4.18404840247808        4.29137604846052        1.69612131800956
C            0.48523110323839        4.28546576116298       -1.68218298857940
C           -0.68209913850866        4.89401176454434       -1.22144808958132
H           -2.37040365560146        4.71958005029713        0.07950061586833
H            1.80202053955867        2.61674412758702       -1.52768669026712
H            1.06569165032562        4.75986883764149       -2.45836713866392
H           -0.98822403202128        5.84473686719778       -1.62965180154578
