63
 energy: -131.232591317970 gnorm: 0.000450008861 xtb: 6.5.1 (b24c23e)
Si          -0.33801343066862       -1.60609533740693        1.58882821699442
O           -1.47397317397785       -2.27270571433614        0.69652960981741
C           -1.80127193548062       -2.43779788345821       -0.68031225330839
C           -2.59252552215710       -1.23969263835660       -1.14129264299404
H           -0.87264923761014       -2.50525771667725       -1.24915177120420
C           -3.81940245188353       -0.94011027048736       -0.56118125611910
C           -2.08285825988206       -0.39526478442353       -2.11924431308544
C           -4.51731243558236        0.19183431062679       -0.94409733097180
H           -4.21990886640289       -1.58366210668711        0.20639865688229
C           -2.78097273795817        0.73690302596802       -2.50190155264868
H           -1.13138664476448       -0.62615176253432       -2.57262975245205
C           -3.99825079855291        1.03438199940939       -1.91264997217184
H           -5.46743981037321        0.41695785977487       -0.48261476545972
H           -2.37264039349456        1.39070954086808       -3.25915704074734
H           -4.54223704964882        1.91836940458132       -2.21153156867272
C           -2.58200755378639       -3.75208129264821       -0.81275918650524
C           -1.70002170544037       -4.88105796483879       -0.60222670117359
H           -3.01943148106447       -3.80420261477450       -1.81319813168868
H           -3.38226683676031       -3.77406405353032       -0.07008865734271
C           -0.93110303716097       -5.77924571230944       -0.42186628292443
H           -0.27229853707235       -6.57960028182606       -0.26423976839903
Cl          -1.07175429899138       -2.00713059544624        3.42486601718919
Cl           1.58019160028178       -2.20236938436971        1.73523482521278
O            0.47233554126350       -0.97627556701670       -0.68421641260131
O           -0.24318480396049        0.08288745704163        1.67679658353085
C            1.55827291520983        0.97249724751593       -0.23096283091971
C            0.25993725313833        1.58628298686310       -0.07799529936052
C           -1.86064026756430        1.62894747072516        1.01536434240265
C            2.73741805950034       -0.94091947555452       -0.95765936449942
C            3.94379986328164       -0.30514418259441       -0.86772903884383
C            2.78397304203617        1.68094194032431       -0.07796546890821
C            4.00383602681943        1.02063040959389       -0.37869770345992
C           -0.14239381917481        2.68298218670820       -0.89672052613269
C           -1.44128812827562        3.23349479557917       -0.74085892417844
C           -2.28224594562889        2.68702186160415        0.27643604231956
C            2.83096897124073        2.99068775389719        0.42953987584228
C            5.21924543211831        1.70267445934300       -0.20905835204273
C            0.67016585540453        3.19110629346310       -1.92459550927533
C           -1.86461197762228        4.27631658913171       -1.55995637453698
H           -3.25108584716826        3.12122637526995        0.45437999790814
C           -2.68668653772828        1.13530692276863        2.17822126822409
N            1.57744000334921       -0.33007212254813       -0.60051173401162
N           -0.64495015351071        1.05669177778080        0.81044951014907
C            2.58769159276133       -2.27404422122142       -1.64847232016043
H            4.84491174194912       -0.81261583221056       -1.16972140949471
F            3.78693975932477       -2.76210342998319       -2.00454626464201
F            1.89508507872775       -2.12827787035347       -2.79640072644128
F            1.98177543847792       -3.23607282598386       -0.96115692287632
F           -2.03263596135035        1.25892421434033        3.33931654926215
F           -3.09023739861259       -0.12981843169268        2.07495783029688
F           -3.80669360935628        1.86548141537982        2.30445386736932
C            5.23342360956817        2.99045083791926        0.26648992165083
C            4.03525782544397        3.63009598161000        0.59605206884936
H            1.91037256783716        3.48793106873009        0.69256826377505
H            6.13831052048542        1.19332412825319       -0.45491021573928
H            6.17001214298709        3.50994606315289        0.39815380883394
H            4.05797419641781        4.63390112158820        0.99147388801794
C            0.22611244267917        4.21893722085629       -2.73011536858593
C           -1.03503745324376        4.77354626977839       -2.54851869313967
H           -2.85180839179140        4.68701724440778       -1.41433273560118
H            1.64728284813423        2.76820907976268       -2.09342293242825
H            0.86701778241163        4.58918850067391       -3.51571569526377
H           -1.36944461714020        5.57936925797579       -3.18285637351168
