63
 energy: -131.229077853320 gnorm: 0.000270009843 xtb: 6.5.1 (b24c23e)
Si           1.22182440453019       -0.06381805896269       -0.62053462472877
O            2.11247386007908        0.40200073531530        0.63376433314874
C            3.38546056530076        1.01689164161972        0.66551612394565
C            4.47395647997444        0.04798427780095        0.28426514632491
H            3.38866773017017        1.86399895004683       -0.02944071862861
C            4.38812055212934       -1.28216264247201        0.67049810886850
C            5.57413384462469        0.47854653085172       -0.44428839384214
C            5.38713782055608       -2.17421423462210        0.32445753079054
H            3.52586017272304       -1.61780236032863        1.22445945177431
C            6.57668791588203       -0.41289951398641       -0.78150990368811
H            5.63663455209807        1.51061249252415       -0.75655417535984
C            6.48467009376136       -1.74067530977701       -0.39901519768595
H            5.30539477450219       -3.20961096558456        0.62014968153701
H            7.42796260830615       -0.07223514544191       -1.35234305218755
H            7.26481442528925       -2.43703076807697       -0.66980976443050
C            3.59500337386783        1.52657161835963        2.10240411319695
C            2.63527019253297        2.55641202151454        2.43611767946200
H            4.60919368987146        1.92337707731653        2.19301517274037
H            3.47712678580572        0.68424283481635        2.78809078920111
C            1.82773806769183        3.40238786199680        2.68869413389204
H            1.13305686757389        4.15272550319638        2.92246382959839
Cl           1.07530053402497       -1.93677216753995       -1.50771549846891
Cl           2.33054435375684        0.75045371873903       -2.21790885052938
O            0.08595105058676       -0.67984827892724        0.79642263898391
O           -0.10883365058914        0.90468652931019       -1.14616023403046
C           -2.04577723438424       -0.80752587471963       -0.08601986329625
C           -2.14133906147130        0.61936007203017        0.02962556462134
C           -1.12473792794852        2.75851174454409       -0.23500512540655
C           -0.89211573055633       -2.75852779705959        0.60735135821613
C           -1.88070060045036       -3.57842328401652        0.15244287062640
C           -3.06602830508046       -1.61866623491885       -0.67513057851390
C           -2.96958678836938       -3.02948818339705       -0.57621081388760
C           -3.27005938718322        1.24117327604136        0.66241529397599
C           -3.29455199404183        2.65231119779780        0.80887074101535
C           -2.17864660363065        3.40073678336652        0.33460389021694
C           -4.10906376084560       -1.06542706541830       -1.43532024003198
C           -3.94395279045637       -3.83414535687252       -1.17974669506789
C           -4.31998091272456        0.50345323953511        1.23312161980208
C           -4.38059516163752        3.27569091580192        1.42737471833471
H           -2.17151376021026        4.47277033009409        0.43793203110697
C            0.02686828618535        3.53784008245716       -0.83014105452811
N           -0.95027348360461       -1.41537477368802        0.43553949194069
N           -1.10877004206445        1.41028956377773       -0.38710828566721
C            0.19358329920758       -3.27785337893002        1.52217597624537
H           -1.82624270996974       -4.64088424320289        0.32032880160459
F            0.10837741448821       -4.61291402881134        1.63914119537408
F            0.00968174375417       -2.78956256295826        2.76438015250772
F            1.44818473655411       -3.01376969375578        1.19102742201012
F            0.04108726621667        3.45918898819790       -2.16413700183565
F            1.22428850369833        3.17438578674112       -0.38233671696675
F           -0.09715573351812        4.84472016509129       -0.53731145795204
C           -4.97274371812511       -3.26488062458622       -1.89419307441122
C           -5.04465624829989       -1.87848653975385       -2.03182870544587
H           -4.16639426871483        0.00474276434848       -1.55729297984731
H           -3.86560487357974       -4.90592040042200       -1.08366597288566
H           -5.71798119402694       -3.88915698048701       -2.36213818283744
H           -5.83670172000368       -1.43941498031995       -2.61843387465285
C           -5.37522056034925        1.13914149743081        1.85090936261483
C           -5.42206566913441        2.52738050783799        1.93401276922533
H           -4.38596960354967        4.35170949171998        1.50813838724821
H           -4.30164437658793       -0.57328585563293        1.19687701487073
H           -6.16938202515973        0.54896791992836        2.28146631366692
H           -6.25864306947606        3.01319418452187        2.41108432812553
