75
 energy: -118.564947875728 gnorm: 0.000313773226 xtb: 6.5.1 (b24c23e)
Si          -0.90605016435681       -0.84471854267692       -0.54424560522372
O           -2.52364688683521       -1.03777438887213       -0.50168315360182
C           -3.43705307108977       -1.46795298829491        0.47667323570872
C           -4.33118536869799       -0.31350000122403        0.85181967914468
H           -2.89931003183672       -1.82600287681133        1.36171598543777
C           -4.80369963894424        0.54194518722085       -0.13554663353755
C           -4.69508705416627       -0.09547628586096        2.17307821844912
C           -5.62994353828569        1.60060395461902        0.19604462897745
H           -4.50546529825771        0.37731082085419       -1.16005707528701
C           -5.52523179186967        0.96169169091381        2.50311150776953
H           -4.32463410894507       -0.75500996895462        2.94491170116766
C           -5.99451494910046        1.81140403127714        1.51569487001166
H           -5.99467851729194        2.26134477374602       -0.57739391085506
H           -5.80330455085801        1.12513737404917        3.53414517302362
H           -6.64070450829513        2.63760949276099        1.77490906867612
C           -4.26857444657053       -2.62736680634058       -0.10734855929782
C           -3.42135334624099       -3.76985347639808       -0.37161592411684
H           -5.05297734386126       -2.89896792760058        0.60395683906731
H           -4.72933056039267       -2.29056284548286       -1.03930999633529
C           -2.67152752227103       -4.67917964763913       -0.57632427761529
H           -2.03191738304138       -5.48979323553066       -0.75892788795699
Cl          -1.18199061970915       -0.06029305667503       -2.48685979180882
Cl          -0.50715211681380       -2.25051828479046        1.05224117165331
O           -0.54254799286459        0.52045791343959        0.42374491962673
O            0.74619006062944       -1.05435219337164       -1.14550648971303
C            1.59391339299709        1.30118646951435       -0.11388786616444
C            2.16637980083381        0.04858025127012        0.31493848931351
C            2.37845115794139       -2.31466228659540       -0.05521521796370
C           -0.36493558325578        2.65802250000583       -0.46396908284653
C            0.40838975797819        3.70606507575618       -0.86403859681190
C            2.42533843586310        2.36390228225729       -0.58187293213518
C            1.82119231551810        3.59425814407877       -0.94555600968755
C            3.19540267743941       -0.00120850985392        1.30149260826962
C            3.83705898895288       -1.23895404616676        1.55632241583971
C            3.42190711462629       -2.37819141782090        0.82043954248081
C            3.80964269866969        2.21519878736146       -0.78420142149930
C            2.61964687106888        4.65040131121942       -1.40156722236570
C            3.53834175190372        1.11149496093271        2.09054214793822
C            4.84784708572103       -1.30498917243797        2.52480202439946
H            3.92727208957463       -3.31328943259561        0.98737785583036
C            1.90896318163085       -3.47148170521612       -0.89340117893426
N            0.24601393273154        1.50784693209839       -0.08107993548223
N            1.77556319133509       -1.11905310083208       -0.26707408100845
C           -1.86171034010573        2.71383931197942       -0.33507840883574
H           -0.05258642748034        4.63433031072243       -1.15243936507372
C            3.97974891420086        4.49397983764548       -1.53855279508310
C            4.56829774126545        3.26410777828315       -1.24705064304297
H            4.28143210888458        1.26818371830860       -0.57626191087713
H            2.14642328849051        5.58786497429029       -1.65257734332256
H            4.58885642606303        5.31238844428174       -1.89075347273777
H            5.62944669030262        3.13034792236148       -1.39275072853819
C            5.19457714167775       -0.19067226727589        3.25221227628949
C            4.52344324999248        1.01483045384550        3.04372202533868
H            3.01914683731961        2.04589904271468        1.94498374452620
H            5.34320868891808       -2.24909780219690        2.69550833267686
H            5.97323117989105       -0.24930152083072        3.99749278912735
H            4.77528039414570        1.87757307743323        3.64157367013285
H           -2.26085296233018        1.73459563725477       -0.60653316252783
C           -2.22767190472100        2.98734829368200        1.12897521849275
C           -2.49792399505841        3.74741188546766       -1.25814105945665
H           -3.30862757058881        3.01089004398724        1.23811902954022
H           -1.83915793097603        2.20178046718579        1.77184141612832
H           -1.81857777726783        3.94345197076836        1.45088758938330
H           -3.57772516273134        3.62958884714329       -1.22706582331032
H           -2.26128588573011        4.76182729773660       -0.94538509509577
H           -2.16472214573904        3.59727377146998       -2.28148465017464
C            2.19375007358707       -4.82430205104680       -0.24962610213708
H            0.82822976175406       -3.37871807352530       -1.02282638555492
C            2.56661678831663       -3.36395063058971       -2.27508269325991
H            1.80416999042050       -4.84757245747792        0.76470367396464
H            1.70336004897639       -5.60553096978556       -0.82494930655631
H            3.25935609965183       -5.04084328369722       -0.23218065174347
H            3.65102648675396       -3.39144003815463       -2.18352423338038
H            2.24825674192190       -4.19379738720917       -2.90045056412077
H            2.27623333862727       -2.43615536010302       -2.76188460331466
