75
 energy: -118.564299832448 gnorm: 0.000667369623 xtb: 6.5.1 (b24c23e)
Si          -0.98751241140293       -0.46934120577267       -0.53112951721974
O           -2.55026707902703       -0.73515096505128       -0.82910084689078
C           -3.55654794942817       -1.52549229065007       -0.24997627682622
C           -4.60182338231550       -0.63721724560729        0.37603062531762
H           -3.12198402385925       -2.18000295842410        0.51402034376706
C           -4.79599657754749        0.65683885890548       -0.08700726785028
C           -5.38697025593220       -1.11371416066281        1.41787900073254
C           -5.75666844352078        1.46726434923033        0.49173807126692
H           -4.18310901141390        1.02280760388585       -0.89677816019103
C           -6.35332322712832       -0.30533036527073        1.98872894491041
H           -5.23377212848606       -2.11867686727253        1.78500474124906
C           -6.53836785169261        0.98794010782600        1.52872979480720
H           -5.89771489705629        2.47518164411753        0.12882545267666
H           -6.95945579449161       -0.68312381797679        2.79925021630090
H           -7.28921544102815        1.62017000679811        1.97983448840160
C           -4.17029461648536       -2.39555257813278       -1.36409604516037
C           -3.18483025719810       -3.32459542498903       -1.87251750850862
H           -5.02880437184996       -2.94049600495991       -0.96428705959952
H           -4.50440495501805       -1.74028504884779       -2.17250236515305
C           -2.32789993948198       -4.06419735587119       -2.26005384722738
H           -1.60329919646503       -4.73135850101002       -2.61981393977344
Cl          -1.06534128451980        0.91460476089356       -2.18114687013188
Cl          -0.82812926395777       -1.98509258585471        1.06475357093257
O           -0.45609440461495        0.66131930906375        0.63547641520867
O            0.52439862094999       -0.93668586798647       -1.20144249802526
C            1.73476639290852        1.18172801093604        0.04245705882992
C            2.13620914838725       -0.18295653354858        0.29485178457110
C            1.95588454806756       -2.51709939049447       -0.26055111992078
C            0.02127726953202        2.87152092814836        0.09136904686303
C            0.93090348982196        3.83259569320729       -0.23416518963836
C            2.69346886075504        2.15404422710212       -0.37300197225620
C            2.28662885517085        3.50664823359014       -0.49661384717132
C            3.20338595565592       -0.47144210933418        1.19742528471405
C            3.66336338178150       -1.80777260276345        1.30908051936661
C            3.02361778164577       -2.80978668926040        0.53463856644718
C            4.00512985321940        1.81180170964381       -0.75003866341636
C            3.21675630586326        4.47453094355201       -0.89726564950939
C            3.76045293828046        0.50332308113703        2.04539264325193
C            4.71284487395216       -2.10634707646040        2.18771252220214
H            3.37532393206522       -3.82367645259334        0.61103809205347
C            1.23609140119708       -3.52470974551605       -1.11339787508163
N            0.45124435392471        1.59398087646591        0.23943898123391
N            1.55314766807039       -1.22643179954753       -0.36037577210240
C           -1.42849904380202        3.14170372924914        0.38319720618563
H            0.61849933876817        4.85737229528636       -0.33198063610209
C            4.50807773852856        4.11926917396582       -1.21037316169449
C            4.89293198768062        2.77965421788104       -1.15442845235670
H            4.31538997564662        0.77922798040903       -0.72356256087502
H            2.89816376332291        5.50388978412434       -0.96514183189931
H            5.21912583393576        4.87021345807589       -1.51927095298469
H            5.89559529135738        2.49860176114271       -1.43869302389523
C            5.27308554815582       -1.12351535485826        2.97002847182407
C            4.77905424288624        0.17971549810611        2.90924745980612
H            3.38112228155337        1.51267515892421        2.01754532996648
H            5.06766429471698       -3.12443756394066        2.24628521298160
H            6.08067344070618       -1.36098026443105        3.64561276119011
H            5.19533089387927        0.94017417136645        3.55233353092135
H           -2.00572002771108        2.29124388426348        0.01432276068212
C           -1.62717238487220        3.23193436622456        1.90109610959332
C           -1.94544497553938        4.39549019801958       -0.31420741115973
H           -2.67661460018426        3.40605810118048        2.12379440887338
H           -1.32550701533260        2.30441535952652        2.38085342815078
H           -1.04033488095424        4.05071431734050        2.31374071720145
H           -3.02397759269383        4.45219601340309       -0.19195539162975
H           -1.51164789931848        5.29703430682212        0.11217723341209
H           -1.72105430124706        4.35255087679872       -1.37637739555441
C            1.33866095374500       -4.94239122353899       -0.55946453829320
H            0.17847827348019       -3.24880097636789       -1.13965865165406
C            1.79037960739203       -3.44577627202998       -2.54138161226009
H            1.03168616264193       -4.96151754231309        0.48273537170893
H            0.67805984983948       -5.59843857141092       -1.12031323071505
H            2.35011467327428       -5.33276740404483       -0.64617782769790
H            2.85529085425015       -3.67184807185519       -2.54924782038147
H            1.27942216612351       -4.16376437647621       -3.17737433631673
H            1.63637568244372       -2.45226773147874       -2.95490104048961
