75
 energy: -118.563725929110 gnorm: 0.000756831268 xtb: 6.5.1 (b24c23e)
Si           0.93975938497347        0.69226794728649       -0.11697453142484
O            2.48288596631181        1.12785158456635        0.08530483866746
C            3.64706880104304        1.01820873571858       -0.69023583675716
C            4.77571783785643        0.47074267671256        0.14517624138377
H            3.46242862397666        0.35218033672303       -1.54147547990556
C            4.75879889730805        0.58858823889439        1.52780584500672
C            5.85789026334470       -0.14235036353778       -0.47418627815448
C            5.80948098834922        0.09593652881834        2.28192014695204
H            3.91171290948983        1.05826197945428        2.00331195418834
C            6.91094493021345       -0.62641629929404        0.28051684499434
H            5.87003444851807       -0.24351574029474       -1.55032750336855
C            6.88862558690985       -0.50882979418617        1.66065286177348
H            5.78592066902921        0.18725205221570        3.35810835557875
H            7.74946075497827       -1.10066127948952       -0.20860007265597
H            7.71033508159253       -0.89042489448189        2.24908410589594
C            3.99797589122389        2.42408018342999       -1.22123836207062
C            2.92517512243614        2.91474122746003       -2.05814745772325
H            4.92973199549280        2.37365138084048       -1.78921342694818
H            4.13153891381716        3.09511238947266       -0.36856739540754
C            1.99140680478182        3.27178499409007       -2.71580936090959
H            1.19582155723924        3.59544243989663       -3.31733369205596
Cl           1.28771485609404       -0.47411237554821       -1.94141075375882
Cl           0.51003596552802        2.01364928977926        1.53285979556746
O            0.38038333868859       -0.61770659001795        0.82424534161633
O           -0.53003394589092        1.09894839930809       -0.93186819036396
C           -1.72622611035190       -1.17297526684054       -0.00615634411490
C           -2.21936293501783        0.14060993325619        0.33827723824555
C           -2.12798716843578        2.51918967449150       -0.00310971701127
C            0.07495423599102       -2.77091781708358        0.00264330464454
C           -0.75090370660216       -3.73596209517177       -0.49136287223686
C           -2.59619561683563       -2.14480922516593       -0.58678697046334
C           -2.10330048559704       -3.45444480629501       -0.81677353466461
C           -3.36516203462077        0.29439698412109        1.17369535901880
C           -3.90527163932372        1.59162400338455        1.36102358600786
C           -3.26841954841545        2.68734293759015        0.72415391268712
C           -3.89775907472677       -1.83399893636734       -1.02175010989684
C           -2.94575551658274       -4.42218792209606       -1.37866209308871
C           -3.92911106056145       -0.77841474801843        1.88825648142724
C           -5.03233941173107        1.75905039745336        2.17637373445220
H           -3.68211395887986        3.67179466987924        0.85495169097809
C           -1.41051651483019        3.63111200480676       -0.71631311545193
N           -0.43704338759289       -1.53841998908835        0.24545969791160
N           -1.64735029537067        1.26413229781074       -0.17773556994529
C            1.51366498354364       -2.99774468386263        0.37679758773040
H           -0.37260235121859       -4.72686514708049       -0.67145286542701
C           -4.23279294348748       -4.10414961874317       -1.74590787346513
C           -4.69849025625147       -2.79955635562140       -1.58361310024146
H           -4.26971864145847       -0.82743377083229       -0.91428845923787
H           -2.56311488704146       -5.42098236773132       -1.52639575202145
H           -4.87632827275158       -4.85512944815396       -2.17816101485322
H           -5.69515293451011       -2.54276298026561       -1.90898894100731
C           -5.59373153029571        0.68439967043348        2.82532723736440
C           -5.02544839143753       -0.58304506379804        2.69311869591996
H           -3.49332046629972       -1.76154903077954        1.80413137728219
H           -5.44626992414410        2.74935388316471        2.29325768283945
H           -6.46148078987495        0.82088739801985        3.45253130090328
H           -5.44632940605947       -1.41690824067522        3.23413809524329
H            2.07024626812416       -2.09097249530106        0.12791171881723
C            1.60978939058229       -3.21744062928691        1.89146925431683
C            2.14574445235261       -4.15820807592738       -0.38495273483967
H            2.64871100245613       -3.36560161223103        2.17401394081230
H            1.22886930743532       -2.35177559545792        2.42693834126596
H            1.03774786575966       -4.09586687435850        2.18502033423048
H            3.21536394519224       -4.17054066109670       -0.19146740830831
H            1.73510949268052       -5.11383060609381       -0.06707416541427
H            1.99252654039692       -4.03672130331948       -1.45384834701753
C           -1.61835626459322        4.98679523620364       -0.04938947723117
H           -0.34082542117909        3.40864773196035       -0.69845191977236
C           -1.87498941557819        3.65610715713343       -2.17806796749446
H           -1.37988338545365        4.92162587992410        1.00843085886877
H           -0.95504447397894        5.71654695684874       -0.50660381493470
H           -2.64037124172166        5.33845164443167       -0.17035560345337
H           -2.95126353286226        3.81054939090387       -2.23332368351986
H           -1.38292644830254        4.46941062932988       -2.70538780014969
H           -1.62900168385393        2.71892083776617       -2.67174116581657
