75
 energy: -118.571061333076 gnorm: 0.000320573010 xtb: 6.5.1 (b24c23e)
Si          -0.42568353518897       -1.78564819497766        0.40259274275305
O           -1.88372120827841       -1.06274966532864        0.32268484796716
C           -3.12849063697346       -1.51243510777640       -0.15259521528928
C           -3.65941863315200       -0.57436713838627       -1.20598939372806
H           -3.01057801287386       -2.51502985288178       -0.57832785228437
C           -3.34978659697514        0.77779855529751       -1.17103395680655
C           -4.49368648642889       -1.05328371294581       -2.20784033105083
C           -3.85636244160814        1.63931328013957       -2.12767885342432
H           -2.69976357043137        1.15054927106450       -0.39471973583284
C           -5.01014146280841       -0.19003452127189       -3.15715582450673
H           -4.73073315783887       -2.10668195091083       -2.24503591196407
C           -4.69151714947807        1.15762743017782       -3.12067322162762
H           -3.59719934907102        2.68815544416517       -2.09438911051934
H           -5.65851758650938       -0.57089091561157       -3.93258462322858
H           -5.09089016816520        1.82891665235749       -3.86673071285483
C           -4.12294423948417       -1.58977177020062        1.02640679213449
C           -3.56879802391734       -2.39239899850644        2.09546339920049
H           -4.32707425105167       -0.58013888937292        1.39229719866072
H           -5.05647046541803       -2.03010209600466        0.66851705546715
C           -3.03688279568577       -3.03545490710495        2.95304268725960
H           -2.57940968900830       -3.61157836563674        3.70041652566071
Cl           0.26928945293993       -3.00832858383008        1.90316408328510
Cl          -0.86686733156133       -3.43087178232780       -0.92621244655340
O            0.62289526169861       -1.20873636761974       -0.82721829637626
O            0.15227757105998       -0.45440246286336        1.49624063361397
C            1.89891244443459        0.66395909450452       -0.21409133161328
C            0.70146861283310        1.36025187976810        0.16506492378024
C           -1.11784800168288        1.48666529929940        1.71612577349291
C            2.93471576164083       -1.39758680303191       -0.90125210366222
C            4.16216688181401       -0.80640356376602       -0.88073667268625
C            3.17868372235678        1.29650443894359       -0.13641544915002
C            4.32791320348229        0.55225031806437       -0.50412762509747
C            0.35964206526252        2.63928377148250       -0.36775200846739
C           -0.71286943328055        3.35455440455789        0.21838454469610
C           -1.39742702234016        2.76109851699943        1.31018574943605
C            3.36375938942979        2.59223775721093        0.37873579296033
C            5.59229510965276        1.15084014500279       -0.44556392551009
C            0.99108540155530        3.17453737511561       -1.50331193221133
C           -1.07067604879296        4.60666999950582       -0.29985920577157
H           -2.17661584000344        3.32245025564034        1.79586582732761
C           -1.81144580061071        0.79048737774667        2.85352645116292
N            1.84198093046376       -0.64324795329045       -0.60375468256738
N           -0.11132378554225        0.81096602942690        1.10925714239570
C            2.70622043052859       -2.82761943446978       -1.30400521049379
H            5.03713967398132       -1.37975860887902       -1.13194472065493
C            5.73725671764624        2.44157449570136        0.00866484205707
C            4.61863407048524        3.15111253270519        0.44236357815732
H            2.51502735816363        3.15494092030737        0.73245229171507
H            6.45313577754935        0.57651329027365       -0.75360722787013
H            6.71476505595731        2.89689075377755        0.05223106097565
H            4.73741484567577        4.14774675699957        0.83958686585914
C            0.61037310266403        4.39823794185601       -2.00049916525105
C           -0.41190124629274        5.12552985393856       -1.38992451235515
H           -1.87814467132919        5.15172704116441        0.16619491150115
H            1.77649468093581        2.61432699145528       -1.98627217698594
H            1.10201986258762        4.79689858603319       -2.87472653563167
H           -0.69387410230367        6.08950577157990       -1.78563464581618
C            2.26930561753194       -2.87482338960006       -2.77351057278060
C            3.93155365550162       -3.70905565838384       -1.07883470809467
C           -0.88096543756437        0.78158321855307        4.07294147705326
C           -3.15361741321747        1.42131397849270        3.21250196570446
H            2.09921577541498       -3.90637214443805       -3.06769673920114
H            1.34115726623961       -2.32792777412525       -2.91219774407377
H            3.03818078847842       -2.44483495178399       -3.41320343932949
H            3.64890380147763       -4.74855846340689       -1.22134387888966
H            4.72364652439465       -3.47657430248400       -1.78713112793748
H            4.31085586750264       -3.59429722058566       -0.06641988404349
H            0.03501336740275        0.24259006698358        3.84712361409662
H           -0.63221917032898        1.79876113238158        4.37165558945954
H           -1.37479406688850        0.28378240975302        4.90294176740330
H           -3.77478645610205        1.55617090939040        2.32950087920323
H           -3.67971787963389        0.76949283082069        3.90575233283716
H           -3.01680648597909        2.38662148225951        3.69583224805192
H            1.89020346633086       -3.22777206604153       -0.69785085385174
H           -1.97867286125786       -0.24751264306121        2.55494497072877
