75
 energy: -118.568126588174 gnorm: 0.000475131922 xtb: 6.5.1 (b24c23e)
Si          -0.30614699827145       -1.48556717667211        0.76274726348841
O           -1.54453498047800       -1.61050381843131       -0.26866979090599
C           -2.80689338872567       -2.21838018206905       -0.18855496907965
C           -3.86510353536227       -1.21247457551842       -0.56703264615018
H           -2.97676005567964       -2.57765929290545        0.83421857695536
C           -3.56803938920705       -0.19571236281307       -1.46506635873306
C           -5.14522481800714       -1.29972395585241       -0.03654335580798
C           -4.53750409667861        0.72296640152388       -1.82653377843756
H           -2.56749072212762       -0.12659927420885       -1.86449685247746
C           -6.11598919264121       -0.38500773172741       -0.40459478895102
H           -5.37684432076557       -2.08361462774994        0.66990508814572
C           -5.81492213269364        0.62773230326408       -1.30013482109704
H           -4.29541827206871        1.51431589702931       -2.52179175547011
H           -7.10981946663761       -0.45911881099429        0.01180390324078
H           -6.57276321540817        1.34361181554675       -1.58310485280158
C           -2.83335776013632       -3.41817902394573       -1.15772005075528
C           -1.79648003489898       -4.36296433833141       -0.80201246687179
H           -3.81475508810229       -3.89606388628564       -1.11218652267480
H           -2.65908915732710       -3.05160224018814       -2.17293258338292
C           -0.90113342383166       -5.08646312867469       -0.47587899103866
H           -0.13032545762045       -5.73869158863771       -0.19251708339951
Cl          -1.39118135603652       -2.06071471202138        2.56153534228603
Cl           1.23646074097877       -2.77970505145822        1.24241232158205
O            0.56350695543567       -0.91679073012404       -0.73531117685142
O           -0.03715320119328        0.04060389004278        1.49522434625251
C            2.03637690851469        0.76214573198844       -0.14067624389920
C            0.89843476229232        1.62195736011999        0.04257673546971
C           -1.29583790105051        1.92802173567542        0.98472999796115
C            2.84189063699662       -1.31065318443928       -1.02849022977357
C            4.13203994932807       -0.88421043910378       -0.89280778136246
C            3.37173140682640        1.20213027361087        0.09658273132085
C            4.44311747270626        0.35603870566795       -0.28258632603775
C            0.81976667538184        2.89950507070642       -0.59210294787793
C           -0.33500193121545        3.69421356928883       -0.37892791295410
C           -1.38022123308641        3.16805836158200        0.42569737969033
C            3.66171694931359        2.40339884411013        0.76698091230077
C            5.76240074006499        0.76982409063073       -0.05023228057340
C            1.79168407472448        3.36670993231872       -1.49515749279144
C           -0.43502101915265        4.95103096444749       -0.98706138532328
H           -2.26288682168951        3.76437297126141        0.57579695805421
C           -2.35925681448548        1.33861017454444        1.86870927473247
N            1.83706516494344       -0.49933369735446       -0.61454266446112
N           -0.16040785741610        1.20501965630332        0.79647142989716
C            2.47696062432466       -2.58453120474184       -1.74124598465511
H            4.93802935685885       -1.50979897228591       -1.23618909615029
C            6.01986456585175        1.96876691141842        0.57137252201578
C            4.96421012709917        2.77781297562894        0.99451122212273
H            2.85177119838074        3.03041771921069        1.10584190844209
H            6.57154013313498        0.12601162921379       -0.36091880491914
H            7.03797820876356        2.28075764704907        0.74825461166275
H            5.17259767054928        3.70238040957401        1.51100022241495
C            0.55807824609880        5.40703558735515       -1.82416974256523
C            1.66163148043177        4.59917608530258       -2.09194170773430
H            2.64732576990706        2.75243674929466       -1.72518457297506
H           -1.31015772897318        5.55320364122766       -0.79341192886847
H            0.47455362358682        6.37735736292210       -2.28928101182978
H            2.42059876126739        4.93975399484522       -2.77980744173134
H            1.44148036432616       -2.83018948455735       -1.50070715346173
C            2.57164026232995       -2.33494116040429       -3.25140458143126
C            3.35883634525369       -3.75790646945433       -1.32238766120717
H            2.29071920917720       -3.23639510678377       -3.78952808616964
H            1.89981721153252       -1.53307206355510       -3.54871445301474
H            3.58663711232052       -2.06216228536689       -3.53357982540725
H            2.98026675939042       -4.67050553540090       -1.77516717273907
H            4.38710878593864       -3.62084162230488       -1.64738149119210
H            3.33652140387516       -3.87143717830190       -0.24251006708115
C           -3.73693111248190        1.95150434672063        1.63528208249037
H           -2.42677985416471        0.26925731249770        1.65668710972454
C           -1.94205209792746        1.50224420186128        3.33596272786561
H           -3.99532778008335        1.94027477324442        0.57945930188145
H           -4.47951483775890        1.36524705597521        2.17016287433654
H           -3.78299611898449        2.97258447416909        2.00739185090529
H           -1.81836568212047        2.55572236531228        3.58117290245500
H           -2.70687427608677        1.07624752628788        3.97888871033933
H           -1.01029452732589        0.97856139389361        3.52851458504727
