75
 energy: -118.569765278570 gnorm: 0.000375886270 xtb: 6.5.1 (b24c23e)
Si           1.21889341737414       -0.78955138316492       -0.38664085312244
O            1.93413432752454        0.61722072057282        0.01550154204897
C            3.00276432236742        0.97411107440817        0.86617750386295
C            4.27625748417353        0.25796710295487        0.47261268908584
H            3.14057958454933        2.05068793459538        0.66769609530139
C            4.58277337790011        0.18758801170229       -0.88185602843286
C            5.14538470034346       -0.32193661442158        1.38515221565479
C            5.71802069406426       -0.46624457725479       -1.31984270445078
H            3.91048122029651        0.63539886437585       -1.59904558685178
C            6.28766912215823       -0.96947306274527        0.94664969412507
H            4.93611569665936       -0.29339249991098        2.44228369856349
C            6.57634878846728       -1.04846713086937       -0.40354868411450
H            5.92915207749089       -0.52353974625145       -2.37735856554642
H            6.94967747686748       -1.42490849188275        1.66842800230116
H            7.46258745315092       -1.56506931580366       -0.74116946092737
C            2.59691605115442        0.80706744179073        2.33740393632985
C            1.35124554541402        1.49589347046939        2.59804104607498
H            3.37757092967765        1.22486488461265        2.97713487916138
H            2.47074423717643       -0.25570480580071        2.55373839597591
C            0.31795094159468        2.07021468043648        2.78416117856483
H           -0.58556368015102        2.56719226592221        2.97547643130843
Cl           1.60026521235670       -1.84221192306988       -2.11714465116108
Cl           2.41530300323199       -2.12018928991592        0.83309727275288
O           -0.09260333551372       -1.17803022588758        0.64675119487275
O            0.07994327099498        0.15399202105882       -1.44877156607011
C           -2.16321559276195       -0.32175504029363       -0.05999381511662
C           -1.60320490683350        0.99998822611940       -0.10492828348180
C           -0.02676623520669        2.46377206188104       -1.15313940477996
C           -1.81000221891079       -2.68330667299534        0.24152160995484
C           -3.12977522016477       -2.92791208505046        0.00738458320773
C           -3.54025378792577       -0.55455175172145       -0.36506816212223
C           -4.03677172723761       -1.88079781360899       -0.30311173121469
C           -2.18315022796231        2.09826912054207        0.59690702375068
C           -1.67785202672190        3.39974234245686        0.35760393761124
C           -0.61749993919603        3.54779922385723       -0.57125891687410
C           -4.40619108389002        0.45839381038164       -0.81514881922846
C           -5.38431339399042       -2.13283486825756       -0.58687233275635
C           -3.16841861747526        1.92587425953665        1.58498322773717
C           -2.22354507010573        4.48938823889839        1.05108135111790
H           -0.25962154658993        4.53835951437008       -0.79180152036136
C            1.07832749994697        2.55559546811983       -2.16842956731811
N           -1.37099668957297       -1.39554377990907        0.22993466420629
N           -0.51146542795116        1.22739881437976       -0.88339104148667
C           -0.81346382545263       -3.75413089688994        0.58745670661925
H           -3.50049170903466       -3.93753707438684        0.03238174397028
C           -6.22389410037567       -1.11155933140608       -0.96899448758981
C           -5.72207366217215        0.18166820954704       -1.10382986285517
H           -4.03592236953738        1.46321807890614       -0.93983719358883
H           -5.75027388614915       -3.14574145121211       -0.51017053319106
H           -7.26166408988982       -1.31265394096473       -1.18672555029086
H           -6.36989022114652        0.97473501912489       -1.44523797895408
C           -3.21450863909784        4.29835999947960        1.98564501525163
C           -3.67417538434001        3.00996018171970        2.26290073403183
H           -3.52061620849622        0.93256968009305        1.81538602164955
H           -1.84254941506909        5.47910352755502        0.84792892817318
H           -3.62601925663443        5.14103154279541        2.52045821887701
H           -4.42672433762551        2.86230199167266        3.02260600693538
H            0.14485327174658       -3.48983738526032        0.13452503178275
C           -0.62017447047878       -3.78768120103867        2.10866805178245
C           -1.21561375098829       -5.13060416050575        0.06562847799753
H            0.11057360780961       -4.54939483137485        2.36431633140963
H           -0.24885952035081       -2.83117447933160        2.46492240390020
H           -1.56101074984671       -4.01570326515045        2.60672157437810
H           -0.38211410561234       -5.81518046369023        0.19750502351614
H           -2.06705189581323       -5.52946295304644        0.61257117144273
H           -1.45828259558944       -5.08825236129868       -0.99330417970242
C            1.90128271921390        3.83392143292489       -2.04402155199240
H            1.73783290600505        1.70041846596494       -2.01250419962950
C            0.46579582369470        2.43130979674533       -3.56912032996193
H            2.23147294973992        3.98168918811540       -1.01853883558386
H            2.78016258707050        3.76055490984306       -2.67998542125697
H            1.33058079808706        4.70376907732356       -2.36170277435227
H           -0.25158625703299        3.23132895283248       -3.74410043021865
H            1.24871939609902        2.49384241729950       -4.32033293114856
H           -0.03711031550450        1.47378384898725       -3.67720365955699
