75
 energy: -118.572610160636 gnorm: 0.000367428701 xtb: 6.5.1 (b24c23e)
Si          -0.94746697894984       -1.60440269249457        0.71807698003588
O           -2.23497152930531       -0.66595591174145        0.36730572004335
C           -3.18430483735109       -0.78859649847720       -0.67254067908832
C           -2.53554394237359       -0.37674386590285       -1.97023570099951
H           -3.51118729938716       -1.83229767960269       -0.73478555826383
C           -1.93317186521438        0.87114466113119       -2.06870102448131
C           -2.46327644126310       -1.25126336809910       -3.04465032479629
C           -1.26572151785718        1.24163656057868       -3.22131806480163
H           -1.97746223420253        1.55307335287413       -1.23199411505394
C           -1.79924205479062       -0.87883161561407       -4.20073443347288
H           -2.91064264228789       -2.23040546347757       -2.96622193012920
C           -1.19764075096185        0.36493145550409       -4.29084210125021
H           -0.79556769772901        2.21314956581705       -3.28030189933835
H           -1.74284314920538       -1.56750477564883       -5.03089727984181
H           -0.67251882036814        0.65013743854013       -5.19091203955288
C           -4.38928598719059        0.10035487515552       -0.32917622706036
C           -4.99559424706241       -0.32154981130981        0.91525405244559
H           -5.11700677593693        0.02962578497205       -1.14154123318066
H           -4.05962652822927        1.13855113558006       -0.24082038873713
C           -5.45508638998828       -0.69198722332657        1.95577805258338
H           -5.87550585069893       -1.01669768630648        2.85998976290026
Cl          -0.70489506302293       -2.71069023373766        2.43632271559551
Cl          -1.53657167022179       -3.31578543135203       -0.45874368960570
O            0.32697175896475       -1.39153153172218       -0.41470626050568
O           -0.26825532322868       -0.26293108735481        1.72753044731625
C            1.84723895447708        0.30257324172800        0.15852491296012
C            0.76441946039990        1.23652882892196        0.29340495958956
C           -1.18113905980621        1.87315367550391        1.53941232197643
C            2.55857263078575       -1.97390840650331       -0.17263803385685
C            3.86384237149030       -1.60132562934640       -0.05434804007990
C            3.20518799428545        0.71348360066783        0.33680679849564
C            4.23241793621561       -0.25386229610502        0.19848374051842
C            0.73510817706625        2.47262508331456       -0.41905652945653
C           -0.25203992141302        3.42939395768896       -0.07823073398132
C           -1.17020939380470        3.10803285789650        0.95516481481203
C            3.56676898850423        2.01327382321702        0.73479475963195
C            5.57103458510416        0.12597546568256        0.35490316969438
C            1.58713332622070        2.73582650460745       -1.50519076996447
C           -0.30604801744358        4.64285051641374       -0.77769909679522
H           -1.89057238691377        3.85052380939030        1.25180429344467
C           -2.12816580990346        1.46168578880959        2.63232964766430
N            1.59674494116954       -1.01451278798895       -0.09808445296039
N           -0.24331629579528        0.96590134746916        1.16865427028380
C            2.11409575698346       -3.38245584545820       -0.45196497306701
H            4.64148310371112       -2.34093198770527       -0.12995770640034
C            5.89904409269854        1.42064827514897        0.68570456854065
C            4.88828082138623        2.35680221391605        0.89793694257835
H            2.80160401211159        2.75025876224802        0.91794331558752
H            6.34088024859645       -0.61911367506381        0.22077211918597
H            6.93276952559720        1.70717095418045        0.80417151895754
H            5.14338628360749        3.36106661721915        1.20046789123952
C            0.56641962503341        4.89309671003517       -1.81112120189704
C            1.50298500373837        3.92832649255801       -2.18413195837883
H            2.30511004175483        1.99005839173743       -1.80854932660980
H           -1.05112249005225        5.37274800387404       -0.49788185449738
H            0.51701376403929        5.82840466810941       -2.34779826353379
H            2.16108579668990        4.11620119855867       -3.01887785947212
H            1.17819156975176       -3.55829064244011        0.08381815453608
C            1.83316210321227       -3.53522460312225       -1.95222857887385
C            3.12450416887818       -4.42603108993371        0.01599474456129
H            1.49673295959934       -4.54761608769155       -2.15579672615698
H            1.04959342110485       -2.85058529539981       -2.26509527964385
H            2.73444442149602       -3.33702558911900       -2.52991059623706
H            2.67345171212485       -5.41188102356705       -0.05833878526469
H            4.01898579603375       -4.41864283928693       -0.60288654078258
H            3.40482638807242       -4.25639817358712        1.05275095091135
C           -3.33931088524774        2.37981259875456        2.76044131443793
H           -2.48103105436978        0.45349189824384        2.39857730748281
C           -1.36263859972438        1.40962495260323        3.96116281436462
H           -3.85515389577792        2.49004060948247        1.81039971726540
H           -4.03920290235183        1.94573947852543        3.46914570300797
H           -3.05146453989118        3.36275892807212        3.12802792452535
H           -0.95100333476977        2.38889515584407        4.20117022074336
H           -2.03725955471170        1.11017220710787        4.75841133491313
H           -0.55381400210893        0.68629540080303        3.90967029523753
