75
 energy: -118.568339162196 gnorm: 0.000387980881 xtb: 6.5.1 (b24c23e)
Si           0.68667979180883        1.32068036111047        0.67336756070906
O            1.85793629764022        1.16949611297034       -0.43085078740082
C            3.20737338894955        1.55867309667146       -0.44890226570182
C            4.06022862674970        0.36734376958548       -0.80517316622533
H            3.49113356970263        1.94182275306408        0.53894179183961
C            3.57662473321570       -0.59305766239417       -1.68407487270784
C            5.33311058415700        0.22207315687823       -0.27067207081408
C            4.35581237446255       -1.68459635864884       -2.02397593929558
H            2.58008706311077       -0.48139776068841       -2.08416293955882
C            6.11385557573056       -0.86692592456840       -0.61624105591647
H            5.70746296250197        0.96194801659755        0.42178649168188
C            5.62779382617312       -1.82177142285582       -1.49359334098679
H            3.97026005743293       -2.42928715574792       -2.70592911861901
H            7.10319885812288       -0.97378966226060       -0.19624162760260
H            6.23710291870337       -2.67318684221134       -1.75947191641665
C            3.37719020533519        2.67867434690910       -1.49555036062609
C            2.53498218823013        3.80491110698825       -1.15407296252926
H            4.42563320089375        2.98425141356547       -1.52846802679791
H            3.08557412794712        2.29007778915118       -2.47494091521105
C            1.79747867388504        4.69122688537191       -0.83493789059987
H            1.16147394252776        5.47718721674163       -0.55637906641452
Cl           1.97720683140359        1.69546594816940        2.38779416727461
Cl          -0.51407870000839        2.92939730153654        1.18135986924412
O           -0.37751945443730        0.89877909285688       -0.74217660723966
O            0.15851697442744       -0.09148733645639        1.48600027116447
C           -2.15014217048107       -0.36786336285094        0.03336030614444
C           -1.23255024407792       -1.46307136087620        0.19122235461075
C            0.90998005813378       -2.23038598886958        0.97790004655554
C           -2.52057446888899        1.79485693228075       -0.92603181910007
C           -3.86037653000590        1.68859166396027       -0.68492847868473
C           -3.52781844877877       -0.46720458533373        0.38799471877858
C           -4.40078502469432        0.58793404996317        0.02496325707613
C           -1.50617564545194       -2.75179030940348       -0.36269267785758
C           -0.54905499457172       -3.78345184473284       -0.18833833054698
C            0.65964756798942       -3.47874112680999        0.49210616443898
C           -4.03229354392903       -1.52962753538230        1.15818042022401
C           -5.75653847373559        0.51022637376318        0.37378597375878
C           -2.63763724568483       -3.02166871693585       -1.15343359279149
C           -0.79612191652133       -5.05669704660855       -0.71493047848344
H            1.39480983654730       -4.25572521096210        0.60683226672278
C            2.15521203107170       -1.86572750896164        1.73702445344379
N           -1.70169758965153        0.78983410637440       -0.52731987688288
N           -0.04514100109725       -1.27361457675277        0.83767657981705
C           -1.92541121227973        2.91704118817408       -1.73273472678159
H           -4.52415885209627        2.46870673056549       -1.01618233436632
C           -6.23287725422599       -0.55963330888722        1.09387002811742
C           -5.36259271085925       -1.57245174110631        1.49996474897421
H           -3.36459722629872       -2.31191655566528        1.48409984433103
H           -6.41694442810336        1.31039717247093        0.07496604382216
H           -7.27731403902206       -0.61191481865266        1.36145692167170
H           -5.73631720192468       -2.39278065399802        2.09358318966691
C           -1.94069843465813       -5.30797437749594       -1.43713344260269
C           -2.84934419715795       -4.27789204462116       -1.67234644247924
H           -3.34738390341747       -2.23633849988623       -1.35778022983192
H           -0.06777870739679       -5.83669353139923       -0.55030824837413
H           -2.12545854679695       -6.29249455409399       -1.83889460698572
H           -3.72657733222208       -4.46415665210724       -2.27313870021022
H           -0.84538669149819        2.91926957061536       -1.57672474153412
C           -2.19521737050630        2.64025756337990       -3.21676636431509
C           -2.47248818372566        4.28169594540873       -1.32203347596211
H           -1.74900688012357        3.42490038646017       -3.82206082372302
H           -1.76149638265082        1.68805419851516       -3.51328854541630
H           -3.26490912243803        2.61275478715828       -3.41478154776653
H           -1.93134470439410        5.05942353767153       -1.85456236749830
H           -3.52788915680185        4.37834061048943       -1.56386356353034
H           -2.33504489038449        4.43018233560881       -0.25500727186375
C            3.33730527752335       -2.77557266405705        1.41629820317197
H            2.43466949186460       -0.84474149534879        1.46745951758273
C            1.85048837224758       -1.89059923132748        3.24040785562703
H            3.49153857785136       -2.85051326659539        0.34278455414986
H            4.23709850173767       -2.35422394594797        1.85685004183720
H            3.19400907099846       -3.77091396800645        1.83081962242885
H            1.51663753563761       -2.88124902512129        3.54443621314051
H            2.74734118752667       -1.63280417705318        3.79619568445609
H            1.08169259875419       -1.16362970933081        3.48540045578423
