75
 energy: -118.566203508929 gnorm: 0.000346883824 xtb: 6.5.1 (b24c23e)
Si          -0.82787424817078       -0.93982564938739       -0.12580420926375
O           -2.21661842908691       -1.75454530425149        0.03593769992469
C           -3.49601282706222       -1.56978832133435       -0.51885063101430
C           -4.22476963877090       -0.45449398359889        0.18578729900687
H           -3.40227323627586       -1.33240758795044       -1.58470787408277
C           -3.99618491121294       -0.21391553481170        1.53419401293533
C           -5.14328906205224        0.32841290019137       -0.50034466490414
C           -4.67419200990511        0.80001013014124        2.18744706074370
H           -3.27241226692741       -0.81615758841240        2.06185184741921
C           -5.82672470357550        1.33661920978468        0.15621419066876
H           -5.31480090201584        0.15081758702255       -1.55190882241927
C           -5.59345210672051        1.57482497108169        1.50066521394232
H           -4.48533894018613        0.98324762655418        3.23504949117228
H           -6.54139144119125        1.94080673103695       -0.38401771618190
H           -6.12683434875501        2.36400770983619        2.01103980604968
C           -4.26405839546969       -2.89434563267329       -0.35402431657840
C           -3.68994168980781       -3.92734965309609       -1.18826908877560
H           -5.31085489687793       -2.73603344897191       -0.62636583369161
H           -4.20799879495472       -3.19779488830294        0.69418526668988
C           -3.18712482391117       -4.74953246983193       -1.89707997005838
H           -2.75888508251283       -5.48761715697158       -2.50672416286606
Cl          -1.42978777725665        0.11045296194194       -1.94991133168016
Cl          -0.13736567925455       -2.12364094947631        1.54662045099503
O           -0.51873290727155        0.48060456612520        0.77346326463682
O            0.67718673805729       -1.08765797614726       -0.95747103352614
C            1.47614736816706        1.35947387425589       -0.06148641695061
C            2.17760866333140        0.15096388958876        0.30417438572681
C            2.49380677392351       -2.20944219911898       -0.02057331336187
C           -0.55859329837237        2.63942029802848       -0.10763663195903
C            0.10977835492735        3.71810673980092       -0.60676094103570
C            2.18663806565574        2.45030414719894       -0.64800913077573
C            1.49442340595249        3.66081905163481       -0.90558588719040
C            3.32241563991291        0.19801880552988        1.15331669787986
C            4.07229177691812       -0.98766791390917        1.35561186213484
C            3.64010468811670       -2.17747065735784        0.71589253272463
C            3.52786556592505        2.34770539934653       -1.06127667997633
C            2.17934035365798        4.74593531771429       -1.46683242919816
C            3.68544810261129        1.35432910433980        1.86796342596016
C            5.19727269276387       -0.95886291219083        2.19046825826923
H            4.21406364141131       -3.07670166724593        0.85513157393185
C            1.97730302371879       -3.43189517717430       -0.72597003613249
N            0.13942174888034        1.51097278240550        0.17188193376534
N            1.80876949285853       -1.05503507134154       -0.20776613931867
C           -2.02617549644344        2.68193096616363        0.21663140965416
H           -0.42745031960376        4.62913361181289       -0.80838472365187
C            3.50715757992327        4.63529944813510       -1.80913085840117
C            4.17250682909326        3.42367212922632       -1.62365693581491
H            4.05519912457875        1.41529667246195       -0.93677427583383
H            1.64338001433220        5.66825186534613       -1.63371674953545
H            4.02969888933095        5.47550570137323       -2.24027603484368
H            5.20254709622733        3.32629043982948       -1.93132519989255
C            5.55617620062717        0.19723511045424        2.84276658821871
C            4.78472252445608        1.35022621200848        2.69204073104267
H            3.09134515671177        2.24924977543287        1.76920112011924
H            5.77083419578178       -1.86427327061288        2.32047944351369
H            6.42226409909897        0.21146085473513        3.48675650031446
H            5.04932692866400        2.24534939945289        3.23417022569915
H           -2.36896963439363        1.66774585794412        0.42552858819593
C           -2.24683378600551        3.52687264823779        1.47482133537553
C           -2.84075983752694        3.21605108104820       -0.96041617188757
H           -3.30325202524701        3.52623453439573        1.72934179589801
H           -1.69016017094798        3.11522538818477        2.31349828472030
H           -1.92522856138135        4.55327680040486        1.31210655384106
H           -3.89867670469795        3.14432889069354       -0.72255697435115
H           -2.60380341130213        4.25526784779995       -1.17275880283040
H           -2.64427787535339        2.61654245116892       -1.84495694091119
C            2.39718294293546       -4.72722782152396       -0.03918060555558
H            0.88582284296266       -3.38707323995896       -0.71906183473732
C            2.45207735481178       -3.39578283988882       -2.18398168857204
H            2.13995310770294       -4.68928400337189        1.01567788552071
H            1.86770032274136       -5.56115371308738       -0.49255931097542
H            3.46418455921489       -4.90794040302603       -0.14640875399029
H            3.53967293002876       -3.40018643628319       -2.22998390917039
H            2.07730326799592       -4.26698602592156       -2.71457135545101
H            2.08184317650143       -2.50370899262506       -2.68314834936368
