81
 energy: -124.884118630242 gnorm: 0.000521169000 xtb: 6.5.1 (b24c23e)
Si           0.52241464833360        1.57213607171034        1.15397389214575
O            1.67680662734381        2.22471732355564        0.20631308481162
C            1.83548988018755        2.28433423407763       -1.19910898628630
C            2.39068695172497        0.97177773222440       -1.69749149374459
H            0.86091188477317        2.46117500979565       -1.66284921127583
C            3.69139080582209        0.59140078001646       -1.39185113881448
C            1.59149610107025        0.09810484536710       -2.42369068145252
C            4.18098579252530       -0.63379932022957       -1.81013216379133
H            4.31946367593131        1.25256042362310       -0.81514258871088
C            2.07718863847140       -1.13018664842993       -2.83581898037812
H            0.57785273126848        0.37770171974671       -2.66937327090146
C            3.37486619583761       -1.49958965840283       -2.52875091556618
H            5.19816822265157       -0.91351840153879       -1.57501154945706
H            1.44099366331501       -1.79902266716167       -3.39715469492246
H            3.75538752674985       -2.45752928761718       -2.85114793558942
C            2.74963965991527        3.47994828781968       -1.51287252015668
C            2.03108158945041        4.71919985522001       -1.30546637066325
H            3.08824778172604        3.41354736178014       -2.55044736702395
H            3.61348039908152        3.45527248887232       -0.84626307090629
C            1.38733002562290        5.71075854668680       -1.12220685354097
H            0.84990679003165        6.59510290530822       -0.95266403955512
Cl           1.68972420384869        2.13288780224997        2.83437115286946
Cl          -1.24399792475859        2.15994858711186        2.14588900727675
O           -0.44891378143610        1.20495776168414       -0.34953189733200
O            0.68517528675401       -0.06205810317400        1.60084120131802
C           -1.61586616820227       -0.69972594517813        0.12700869129869
C           -0.37964158665759       -1.45129989042472        0.04181048786974
C            1.75972780784026       -2.03906195131358        0.96690858434068
C           -2.79948109856054        1.29532062718033       -0.48186301820974
C           -3.97676747952080        0.68615875699091       -0.14982510009295
C           -2.82421125547835       -1.35767339030557        0.48366016455218
C           -4.02838339817375       -0.61862687264555        0.40348139701554
C           -0.33079408468744       -2.55895442338111       -0.85264354217446
C            0.81163471124168       -3.39229906703987       -0.83136358987427
C            1.81076526693602       -3.12416650589259        0.14014353777652
C           -2.85863613301286       -2.66001227623403        1.01364860032072
C           -5.22861810956026       -1.20719732564888        0.82184515564433
C           -1.32030610115677       -2.79916459691286       -1.82359035747338
C            0.91266041000874       -4.45803639967211       -1.73113498419325
H            2.62850114622384       -3.81753306420116        0.20492105364532
C            2.78136863491073       -1.82507872423128        2.07615604776705
N           -1.64894507888553        0.60726750606107       -0.23557407811386
N            0.70591098744687       -1.18011365399585        0.82355902671786
C           -2.75190282225141        2.59630734557413       -1.27418163909448
H           -4.91182278798652        1.19463054702595       -0.29664704590758
C           -5.23958225162753       -2.48874882230982        1.32139627435678
C           -4.04970203646315       -3.21129522547837        1.42034027199769
H           -1.94254950750765       -3.22235741885204        1.10753380757803
H           -6.14262073759673       -0.63720812561923        0.74763833223539
H           -6.16642756520088       -2.93621271948445        1.64660452745085
H           -4.06380926699702       -4.20975146283829        1.83040140263923
C           -1.19388297035408       -3.84959268717355       -2.70327265772982
C           -0.08247395833834       -4.68887060232315       -2.65572494767147
H            1.78328989638946       -5.09538410647266       -1.68978470988837
H           -2.18170329662270       -2.15232731980926       -1.88324146539841
H           -1.96090011225159       -4.01907299775427       -3.44394890847160
H            0.00090468625427       -5.51109259436630       -3.35004373706235
C           -2.10060328141151        2.26886599130455       -2.62876888395269
C           -4.16644267027514        3.12055389320679       -1.55342568499878
C           -1.98326637288751        3.72730831970568       -0.58219493537188
C            3.67108804552918       -0.61304948969573        1.78233939566920
C            2.06164013977392       -1.65234028605054        3.42425513372198
C            3.70490407055399       -3.04517226378602        2.20901512688230
H           -2.07495046298504        3.16161477763406       -3.24871146866944
H           -1.08108387071459        1.92110111045669       -2.49686733307510
H           -2.66801531147393        1.49942701870971       -3.15096594011790
H           -2.08041681655343        4.63600372909313       -1.17231840075487
H           -2.38904987900352        3.90716256462956        0.40897108278715
H           -0.92639180649494        3.50813176128168       -0.48502141634696
H           -4.09244537899539        4.02213369817792       -2.15687520060054
H           -4.76051475221943        2.39837757904689       -2.10878107664855
H           -4.67611749638821        3.37874393395697       -0.62901554616448
H            3.09518153000693        0.29695723310817        1.67497443061425
H            4.36238818739912       -0.46891898107016        2.60852041981382
H            4.24022447273180       -0.78245395358854        0.87186784210650
H            1.57711110105030       -0.68542335318244        3.49800892942373
H            1.31874186086145       -2.43612995578212        3.56363039290699
H            2.78834243054488       -1.72127612027813        4.22922122806798
H            4.30999399681455       -3.18964050705051        1.31722118212453
H            4.38416508589196       -2.87546046905074        3.04065047464372
H            3.14013306184349       -3.95123049434524        2.41624605773669
