81
 energy: -124.786591068364 gnorm: 0.000444191852 xtb: 6.5.1 (b24c23e)
Si          -0.86280375559684       -0.79589503536347       -0.60114909209200
O           -2.74514708528730       -0.54924772799300       -0.30550565440983
C           -3.45196362077264       -0.84798055120596        0.67440650391953
C           -4.86626395478681       -0.64197068574494        0.69699986419238
H           -2.98575116499547       -1.28075040322910        1.56268891773426
C           -5.52790083662957       -0.09949021661389       -0.41859086670226
C           -5.61273959834574       -0.97498416054796        1.83905845921745
C           -6.88972860685728        0.10146815294916       -0.38535791235151
H           -4.94414250600711        0.14586645693831       -1.29234420007728
C           -6.97447905491271       -0.76760948039920        1.86002958605528
H           -5.10588939532015       -1.39294891943357        2.69628075413275
C           -7.61707221037517       -0.22970354281087        0.75135773762461
H           -7.39544338475930        0.51571602292022       -1.24473464712199
H           -7.54662787276857       -1.02378459864484        2.73958152617219
H           -8.68482467565430       -0.07080898699044        0.77393472043415
C           -1.85008336614441       -4.14734863560211        1.33982962161798
C           -1.22917241225836       -3.01942933194626        1.19230904313817
H           -2.82947092762671       -4.20382833907845        1.78768852297505
H           -1.41428357213070       -5.07863475401969        1.01870807309924
C           -0.63683231509655       -1.88895676839339        0.97960865181933
H            0.00634347745841       -1.49496003369532        1.75822437287923
Cl          -1.14867022637393        0.61828652542519       -2.21119115769721
Cl          -1.51893009720688       -2.44598941108415       -1.85763376591376
O           -0.48156268753957        0.64892197852911        0.53768824702396
O            0.85180015578448       -0.87826971517746       -1.16200945751611
C            1.63889770233906        1.32791365703654        0.08567946164700
C            2.11178386029210        0.01050342400142        0.50630394195651
C            2.46113311907931       -2.26177597363222       -0.13161379800185
C           -0.13830307015046        2.89448791385296       -0.11598893086974
C            0.77352064904352        3.83072237542259       -0.53658193215453
C            2.60442079568169        2.27241134443178       -0.33701621635530
C            2.14926573824209        3.56642828551018       -0.68475803173330
C            2.95978501437223       -0.11438163593462        1.63057796803717
C            3.51213406812431       -1.39123309186099        1.90020824440293
C            3.27714586172384       -2.42082361344217        0.95908897249273
C            3.97245330685516        1.97001793032083       -0.49397181342415
C            3.06586592768410        4.53035750346596       -1.13252774569600
C            3.20848306825412        0.94262448265726        2.52796054775905
C            4.30649300905109       -1.57161716065884        3.04090304441783
H            3.77518212237870       -3.36010755332270        1.12050833110626
C            2.34612700699325       -3.36401601601442       -1.17615355231489
N            0.32089715817051        1.64007571698999        0.14981634989701
N            1.81610409981114       -1.06995846233581       -0.25740516323982
C           -1.56774729844416        3.38306292208873        0.09499271026100
H            0.43580691670284        4.82597925853200       -0.76960739120291
C            4.39810872322793        4.21835814043776       -1.24831322429919
C            4.84636270150706        2.93150131903880       -0.93548951429267
H            4.33308612237429        0.97872357225845       -0.26819102857952
H            2.70532905804037        5.51680515897317       -1.38271178734655
H            5.10299339421243        4.96049564984976       -1.59103308297045
H            5.89229626949606        2.69021958266784       -1.05046148840436
C            3.99175091509718        0.73573444388048        3.63707375641164
C            4.54517636707966       -0.52040029069996        3.89559635782040
H            4.72990054230375       -2.54586316005905        3.23408721645025
H            2.77602302239174        1.91316894008204        2.33917224953896
H            4.17691595107712        1.55043087353681        4.32073110286493
H            5.15897637429711       -0.66347782219904        4.77188049467623
C           -2.57394555335945        2.34505660748289        0.58210443628291
C           -1.52229164326344        4.50606909025012        1.14845036840094
C           -2.09125773169572        3.92330790550093       -1.24543275912051
C            1.23240156301926       -4.33898890763226       -0.77508235730322
C            2.07765736277122       -2.82135573231444       -2.58499488468325
C            3.67522445090161       -4.14149056126991       -1.23349510671028
H           -3.52787084679677        2.83646752744564        0.76758592837260
H           -2.72302580992704        1.59437739771119       -0.18236486607348
H           -2.25496894697122        1.86270605816135        1.50195167462312
H           -3.13323892357542        4.21326810247375       -1.13663031298086
H           -1.53232372459103        4.78962851561810       -1.58644095956821
H           -2.02081585947832        3.14217310826566       -1.99829934367636
H           -2.52573694249489        4.89621772355236        1.29974299840049
H           -1.16036413037658        4.11871549100059        2.09900782911353
H           -0.88189752982205        5.33048377488240        0.84913123651795
H            0.25875254644736       -3.87063772259158       -0.87287170277405
H            1.25956494666856       -5.20466786639041       -1.43182448254031
H            1.36441499264437       -4.67188706764451        0.25260477458165
H            1.05994567254748       -2.46394360335209       -2.68903449806892
H            2.76258384806560       -2.01084479785248       -2.82718573048169
H            2.22189391544451       -3.62053979047792       -3.30775670841440
H            3.81202236533758       -4.77901347024528       -0.36416302431271
H            3.66843304226186       -4.78729427546553       -2.10755021545248
H            4.52389113313441       -3.46582106077051       -1.31706219114140
