81
 energy: -124.886848508989 gnorm: 0.000229822752 xtb: 6.5.1 (b24c23e)
Si          -0.12064049322686       -1.11228427805192        0.95935761404010
O           -1.13839094838597       -2.02784849879432        0.09331200425592
C           -2.20715187011938       -2.87189721947685        0.44296566553180
C           -3.46147493823561       -2.42335244408881       -0.26307954166768
H           -2.35763497513032       -2.84206393343468        1.52871143674346
C           -3.38707461881373       -1.85549994342843       -1.52763604457926
C           -4.70236938364680       -2.59012184241186        0.33678003639549
C           -4.53801358848402       -1.45285294958697       -2.18119957147613
H           -2.41780123027663       -1.71728044707809       -1.98210759706085
C           -5.85316629461789       -2.19336025875829       -0.32063294204655
H           -4.76212216756351       -3.02504615331276        1.32393370816685
C           -5.77348591985722       -1.62282309371521       -1.57998585966605
H           -4.47158254301063       -1.00657089748272       -3.16322461009570
H           -6.81514582110244       -2.32474390950000        0.15290265939772
H           -6.67253191360065       -1.30937359098013       -2.09035913163574
C           -1.85293943434840       -4.31415393901079        0.02658122607635
C           -0.71094857640323       -4.78916607112772        0.77750169426821
H           -2.71645936231493       -4.95794666732309        0.21142935150391
H           -1.62251679038868       -4.32472401273207       -1.04212070056853
C            0.24253934112079       -5.13063740943558        1.41408263857577
H            1.07588534335259       -5.43667010415569        1.97197642502855
Cl          -1.01613483814252       -1.45550403160958        2.90909055237678
Cl           1.74136846521264       -1.73717368303084        1.66052236122120
O            0.54205940460365       -0.68624058367503       -0.66601701310410
O           -0.42041128604098        0.52297344469250        1.32829858210516
C            1.89281456290308        1.10446220064622       -0.18565494098264
C            0.74129070492314        1.96845587619063       -0.12458681198725
C           -1.47999783718876        2.48751407950083        0.65230484579038
C            2.82887192056293       -0.86996332116917       -1.16870977119728
C            4.08522742997895       -0.38871107104799       -0.93172773684737
C            3.18806484526251        1.58845789079074        0.15757086762037
C            4.30848819803662        0.79718564901180       -0.18601737170029
C            0.81507939033154        3.21630821007226       -0.82196039173290
C           -0.27350855956968        4.11202437536452       -0.71655482398860
C           -1.40163256476030        3.70534888519417        0.04123113190559
C            3.38367993379676        2.75997401299925        0.90918030377086
C            5.59114587970293        1.22367811665815        0.18315513554757
C            1.87312706607663        3.56004178913433       -1.68363363065632
C           -0.23254310117791        5.34729026838106       -1.37268074628087
H           -2.22070637788027        4.39721880414669        0.10245652297175
C           -2.70681397232060        2.08567536340729        1.46095885873722
N            1.77602273963825       -0.15086482387891       -0.69213649720517
N           -0.40477608916075        1.64685927214936        0.54955316903387
C            2.56033436719800       -2.08258802054051       -2.04786185215746
H            4.94871974878813       -0.92374485752436       -1.28237692893671
C            5.76051499134240        2.38794554719288        0.89476055415579
C            4.65155042229458        3.14996565341247        1.26651866179229
H            2.52996017465376        3.34640024800142        1.21187466098871
H            6.44198479993508        0.61988023626285       -0.09481359803912
H            6.75064003276208        2.71090201111635        1.17872604017110
H            4.79136170470431        4.04869403048318        1.84776253888226
C            1.88578471997271        4.77432758747395       -2.33018988136476
C            0.84491202255421        5.68479760982540       -2.16023569145730
H           -1.06315384278083        6.02720834218482       -1.25546119939764
H            2.68359844018767        2.86833645750872       -1.84683506715989
H            2.70957317162034        5.01881817457607       -2.98349531762111
H            0.87466084060730        6.63907043632220       -2.66335235078672
C            1.60627863630270       -1.65481035518292       -3.17512148368172
C            3.85767354201106       -2.58332750720857       -2.69517844938118
C            1.95106615416424       -3.25036863212531       -1.26392517914132
C           -3.31137262916013        0.78715510701390        0.90979560367071
C           -2.32852472577206        1.93169402391917        2.94188103461488
C           -3.80080628885884        3.16052546363148        1.38096341056210
H            1.44910467584674       -2.48987786991002       -3.85329600979033
H            0.64384898705467       -1.35441770581061       -2.77370947652141
H            2.02923509646318       -0.82524451074782       -3.74010630377285
H            1.90073199270493       -4.12809765563679       -1.90427989386361
H            2.56230238853775       -3.48645449356675       -0.39763805239466
H            0.94906398827945       -3.02106486457292       -0.92365359410008
H            3.61848985865068       -3.39684917968013       -3.37595078568416
H            4.34589414384327       -1.79901390978241       -3.26936876865855
H            4.54610938255997       -2.96848316585875       -1.94760928756079
H           -2.69595354244676       -0.07185152052552        1.13797265548839
H           -4.28521674357276        0.61737743002512        1.36165101909211
H           -3.44202894233164        0.84956538242535       -0.16898132295374
H           -1.64817906064279        1.10315804333639        3.09939224251404
H           -1.86549074857025        2.84592519695070        3.30907850560095
H           -3.22639640192206        1.74008365389229        3.52327178629443
H           -4.12929980428702        3.31958126513983        0.35648500818479
H           -4.65900863597614        2.82181821883109        1.95612240574612
H           -3.46974764602250        4.10303406874233        1.81050130930248
