81
 energy: -124.884897369124 gnorm: 0.000373091226 xtb: 6.5.1 (b24c23e)
Si           1.15338083051072       -0.01458713660016       -0.40403421034069
O            2.24207741488680        0.16032029843189        0.78542330566538
C            3.51852315356886        0.75634313416168        0.79613631996004
C            4.54303613551689       -0.03618503026897        0.02451233442563
H            3.45028253094830        1.76103960486635        0.36257018592128
C            4.50514520728099       -1.42233547072224        0.00446747770348
C            5.55667129472211        0.62552800396823       -0.65586558836920
C            5.45715188336097       -2.13755287167778       -0.70005286283869
H            3.71618055125116       -1.94088159056890        0.52567945532371
C            6.51321354610473       -0.08997456471110       -1.35183368266813
H            5.58426741276483        1.70552764336021       -0.65183129867270
C            6.46416601106027       -1.47365991779162       -1.37789910311556
H            5.40891899688209       -3.21652441108878       -0.72054625690813
H            7.29311321821567        0.43417546710837       -1.88448799862127
H            7.20561298215612       -2.03178343127024       -1.93072562981346
C            3.94609956421507        0.87169763395855        2.27228388312293
C            3.07074849956303        1.76539000880421        2.99829565665142
H            4.97305903440459        1.24302612214804        2.31602652376294
H            3.90736982588777       -0.12259266276821        2.72361340590917
C            2.32993485875310        2.51095023454390        3.57027137949725
H            1.69142146969629        3.16094501378582        4.09004367140014
Cl           0.98330710251428       -1.80547198909062       -1.46052353186960
Cl           2.35490062647527        0.87866517953161       -1.99064609774763
O            0.07406548641543       -0.58982011514602        0.92523530529735
O            0.00905724328852        1.14115193124092       -0.90329767998674
C           -1.95479695936532       -0.73929452571403       -0.14124470791557
C           -2.13221727428885        0.68566570989242       -0.02923283285552
C           -1.32348708864540        2.94219147555961       -0.26117774281145
C           -0.98736116634169       -2.68616540159490        0.86067511703294
C           -1.91772279992728       -3.46752987660558        0.23685921097748
C           -2.87704958634693       -1.53603987232912       -0.87898946941144
C           -2.82181246031052       -2.94003920986842       -0.72079149180251
C           -3.40037770050863        1.16154937180649        0.43381362333680
C           -3.61126484114877        2.55798394271378        0.50163539670952
C           -2.54078841460641        3.41383095470796        0.13600176663063
C           -3.75789629696330       -0.98947313841468       -1.82818444012735
C           -3.67867564344897       -3.75188450733158       -1.47542357314561
C           -4.41631214590473        0.31608646920597        0.91688539458125
C           -4.83955713017643        3.06276797875209        0.94267014936249
H           -2.71980515260443        4.47093373688874        0.19884379054162
C           -0.20484349531904        3.88582337638353       -0.67975514741118
N           -0.96969696777352       -1.35834437387564        0.56063511633346
N           -1.14741375336939        1.58716084682626       -0.32452941637699
C           -0.08342091885922       -3.20226784421719        1.96979803675713
H           -1.96573325475942       -4.52244108329609        0.43614142925483
C           -4.54995167539988       -3.19302731119857       -2.38062476711010
C           -4.58020602047287       -1.80931818010139       -2.56237610858731
H           -3.77627627066699        0.07819027688514       -1.98361293970343
H           -3.63803761675247       -4.82217853309588       -1.33916257123398
H           -5.20573598273667       -3.82309344440208       -2.96217883564881
H           -5.24911004901150       -1.38098156708070       -3.29324132589368
C           -5.61179839119651        0.83510391065238        1.35748063306659
C           -5.83923381842972        2.20969267170759        1.35226048853441
H           -4.98670994314109        4.13234615702203        0.96111443372890
H           -4.26235267559501       -0.75025296607900        0.94870983889530
H           -6.37869621891899        0.16715616907358        1.71935566703427
H           -6.78640816714109        2.60184543778181        1.68948548397106
C           -0.34701523078216       -2.35070853890765        3.22289501084469
C           -0.40955745419094       -4.66186299321777        2.30779610118536
C            1.40102884931453       -3.12706865873606        1.59777869302638
C            1.08165165324435        3.59521606663940        0.10869288361235
C            0.03964767379827        3.73672259289659       -2.18986979692347
C           -0.58859149766807        5.34927661226648       -0.41785442468435
H            0.23490130802413       -2.73898727961280        4.05511637126295
H           -0.05611589722383       -1.31788264491944        3.05648914329244
H           -1.40140307102311       -2.38393364937990        3.49350628158293
H            1.98913881981294       -3.64376335925297        2.35368853193253
H            1.57389965911436       -3.59848473624826        0.63358694874616
H            1.72747620844416       -2.09492323157467        1.55231955953101
H            0.20754659830522       -4.97436777951732        3.14696240223227
H           -1.45110914389852       -4.78145327263306        2.59719236954424
H           -0.18778904194969       -5.31706562848105        1.46932861477014
H            1.63892205882165        2.78917477513170       -0.35020093572615
H            1.71879987396824        4.47586321182339        0.11032649132581
H            0.86428175051524        3.32859368183237        1.14096281970787
H            0.41591836771960        2.74988313884033       -2.43599029718873
H           -0.88204865955774        3.91397789592349       -2.74147966172229
H            0.78040467719561        4.46557504038613       -2.50757172052650
H           -0.78694519932893        5.52493056161052        0.63695504961223
H            0.24388749533536        5.98338045879545       -0.71287119183833
H           -1.45117379830635        5.65053200148011       -1.00736641402709
