81
 energy: -124.884887343812 gnorm: 0.000639431240 xtb: 6.5.1 (b24c23e)
Si          -0.85554708920991       -0.69604686977126       -0.02203914764147
O           -2.32209915846695       -1.36131744706327        0.05427574312950
C           -3.46485702668556       -1.32968797536325       -0.76185649537685
C           -4.63907575021426       -0.79504976186976        0.01823682953835
H           -3.28026591693313       -0.68888589153369       -1.63173795992048
C           -4.65767491079446       -0.85292494917128        1.40448938086351
C           -5.72662160922341       -0.25473225753376       -0.65658632284339
C           -5.74892452140074       -0.37300848989767        2.10739701862037
H           -3.80748467903240       -1.26640880940165        1.92460336835876
C           -6.81994054528244        0.21610668098059        0.04710735396579
H           -5.71100727551791       -0.20044186712065       -1.73594818580820
C           -6.83312508736108        0.15852263244864        1.43109014642357
H           -5.75246319408882       -0.41764404485635        3.18665475670969
H           -7.66303079434065        0.63221826694410       -0.48500503637402
H           -7.68691116297955        0.52875107515695        1.97967638165572
C           -3.74551250148475       -2.76652521345100       -1.24554804126224
C           -2.69395586409570       -3.20877043601359       -2.13494290118388
H           -4.70730877101687       -2.78992291521167       -1.76352826224937
H           -3.79092130498734       -3.42302460720119       -0.37263853513711
C           -1.79144906467683       -3.51822259582620       -2.85712236717803
H           -1.01512930378514       -3.81607251422696       -3.49613916542232
Cl          -1.16064899023481        0.29596412935694       -1.97165760583427
Cl          -0.45547850592772       -1.68331100294252        1.85778990140334
O           -0.44856877421722        0.75089701857005        0.78134842611889
O            0.60874446228356       -1.20744457906180       -0.74147928462398
C            1.62235192961996        1.26268607194528       -0.10199360409551
C            2.17689393603504        0.02242204304915        0.41843216265211
C            2.39728784788630       -2.36863589444791        0.24628860129635
C           -0.13177322080952        2.91386993757808       -0.06970360687363
C            0.67506442548186        3.77835005483828       -0.75319856850118
C            2.47468039490587        2.14065281070523       -0.82839136894375
C            1.97376331989443        3.41362814791820       -1.19455551710159
C            3.28566666956277        0.09083249959466        1.30666408020612
C            3.92478546748753       -1.11692797771367        1.67711870277989
C            3.47849134719680       -2.32374418627541        1.07926870267587
C            3.75352025134979        1.76310818546957       -1.27874648209254
C            2.77403989861447        4.28235264336000       -1.94584788119052
C            3.70941914156075        1.29159514071798        1.90626141114454
C            4.98757506175108       -1.08627081178126        2.58783464578045
H            4.02036415050749       -3.22064374451464        1.31669064415649
C            1.98839083987890       -3.62904395255819       -0.50263964755770
N            0.35036852942648        1.66512465583273        0.17293983876937
N            1.74458916177770       -1.20008574963919        0.00212948986265
C           -1.46155947022405        3.33574209870540        0.54079177904593
H            0.33700822260246        4.77153934216422       -0.98517996446289
C            4.03424499991805        3.90125776322822       -2.34743388096498
C            4.51645834012382        2.63440192535036       -2.01906273432231
H            4.13409502184459        0.78140359346696       -1.04369821684629
H            2.38573819374637        5.25584399666167       -2.20551038149096
H            4.64670774145212        4.57556555224193       -2.92635676430140
H            5.49566772497551        2.33122026441227       -2.35754991297598
C            4.75199008673682        1.29220632509971        2.80148919983994
C            5.40135319864351        0.10468953653234        3.13938828666263
H            5.47514943313075       -2.01275290175690        2.85174832251930
H            3.20714239224079        2.21536725853170        1.66500100388044
H            5.06523015072119        2.22018143592021        3.25543503607714
H            6.22001250483464        0.12215743613977        3.84253616265905
C           -1.34154695501492        3.20034391561057        2.06840642255341
C           -1.76395077100419        4.80581618460293        0.22248554522785
C           -2.64588403474794        2.50503075802501        0.02806447975722
C            0.57386127269093       -4.09554124160321       -0.13536964226792
C            2.08129033184615       -3.34588886085077       -2.01158362247462
C            2.94734197508723       -4.78447717498805       -0.18640391212127
H           -2.26116978576795        3.54564290165088        2.53393574981852
H           -1.17949992141707        2.16796407926388        2.36217435105302
H           -0.51636944132313        3.80568040025772        2.44065378126715
H           -3.57747138184664        2.98441989000248        0.32004282366030
H           -2.61714643633919        2.42785710398124       -1.05528200002260
H           -2.64823801305821        1.50430406387707        0.44467217710158
H           -2.69905141757695        5.08289814890866        0.70313186879938
H           -0.98800054510644        5.46583843132030        0.60326651102897
H           -1.88050196439653        4.95811965741770       -0.84744527732940
H           -0.18826324554648       -3.45269730883186       -0.56186913039445
H            0.41369106246041       -5.09904980988078       -0.52297897261507
H            0.44762255665590       -4.11102061157547        0.94346341607322
H            1.37699965963122       -2.57712615629430       -2.31322054482745
H            3.08745971558985       -3.02561159571095       -2.27848856782615
H            1.85315097698738       -4.25586763044693       -2.56110718552038
H            2.89337573543810       -5.06104374804361        0.86323959234511
H            2.65624190427368       -5.65176466855253       -0.77418650103060
H            3.97374136926270       -4.53636280489574       -0.44710489634068
