81
 energy: -124.888397847522 gnorm: 0.000384848648 xtb: 6.5.1 (b24c23e)
Si           1.01387351137600       -1.61371210612885       -0.49289688520201
O            2.04719965871610       -0.47723032005934        0.03451144111338
C            2.91568201477053       -0.09639991088956        1.07294334549896
C            2.13747237610797        0.45706660067043        2.24333496913625
H            3.50810634457519        0.72123321050118        0.63098315986611
C            1.15863103387875       -0.29950837396463        2.87437648797877
C            2.38618991887384        1.74864624732423        2.68986467443880
C            0.43558359295038        0.23399637907000        3.92635009201131
H            0.96115550104076       -1.30561348742133        2.54127487773379
C            1.67548589768775        2.27391361931685        3.75372809959666
H            3.14487387042803        2.34591730111601        2.20336941990241
C            0.69345334973026        1.51912946655930        4.37090258514277
H           -0.32643703688796       -0.36251542403197        4.40621722094430
H            1.88546670242445        3.27635080903567        4.09660214392063
H            0.13335464962474        1.93114467527370        5.19749146606947
C            3.89310473269669       -1.20183790295617        1.50776336696178
C            4.63167961957391       -1.68070985389638        0.35952531748355
H            4.57609578992545       -0.78132269002473        2.25076335293329
H            3.34433432698185       -2.03154390695901        1.95486759472371
C            5.18764614017748       -2.03112007297575       -0.64021772277832
H            5.68606246093004       -2.37255963126171       -1.49724824284518
Cl           1.38367334541160       -2.82189693726392       -2.12682789205982
Cl           1.45831007952807       -3.20821366533588        0.89570367988957
O           -0.50199887469288       -1.61515442116095        0.29303402521751
O            0.42711597212123       -0.42028541530053       -1.73260849172476
C           -1.74032854853859        0.30417197629899       -0.27311625535788
C           -0.55875238924204        1.12690533495688       -0.35778835791373
C            1.32333999240891        1.75597767905729       -1.69650173467659
C           -2.81655427988132       -1.81880440063263        0.09892888003360
C           -4.03375359570787       -1.21683221598882       -0.03848068840624
C           -3.00570634788039        0.94134021500995       -0.46720349240318
C           -4.17850610958945        0.16374919206887       -0.32991956721954
C           -0.43067418335998        2.29771732280738        0.44147904914839
C            0.61117050611421        3.20269825352232        0.13421544500025
C            1.41908314397263        2.92817027589470       -0.99882418880304
C           -3.14304206522788        2.27990084989390       -0.87974365756879
C           -5.43570775172261        0.75276408071271       -0.50562362086532
C           -1.22915296137949        2.53475071045122        1.57317960734251
C            0.78666746224828        4.34484389608902        0.92618781471818
H            2.14079325799964        3.67230354608512       -1.28383309741169
C            2.13278710825522        1.48427841396898       -2.95629790963496
N           -1.69802644580615       -1.04001516230844       -0.02863187376439
N            0.39255152185502        0.85227652742386       -1.28906499924831
C           -2.69781943427560       -3.30202383578183        0.42462476942041
H           -4.93675885720661       -1.79060963695018        0.05514843751192
C           -5.54274320987124        2.08069707010404       -0.85182203525323
C           -4.38899272061369        2.83439220129614       -1.05873099674218
H           -2.26725703967068        2.88124683425202       -1.06264613751561
H           -6.31877406348113        0.14615712589362       -0.37099682722520
H           -6.51365701203265        2.53260345570241       -0.98508394036089
H           -4.47156326435932        3.86404610961596       -1.37217818163155
C           -1.03065256777902        3.65884065146598        2.33714789216693
C           -0.03054506422687        4.57435662945723        2.00789169876161
H            1.57366904818519        5.03998540935800        0.67360895797421
H           -1.99574391746628        1.82463934368092        1.84150469971118
H           -1.64924476547557        3.83207043698658        3.20432119791805
H            0.10638520675522        5.45795971677267        2.61279570628037
C           -2.04673247952527       -3.48425620203807        1.80443899792620
C           -4.08092739756424       -3.96705869321222        0.48578877677928
C           -1.89748960758642       -4.02908999646844       -0.66487480877726
C            3.19780393183138        0.40486260558893       -2.73000024421001
C            1.17593388304450        1.05213347216410       -4.07858657587586
C            2.85186128745493        2.75681806888465       -3.42532376107876
H           -2.08046680985523       -4.53464167179605        2.08077679513472
H           -1.00813471399890       -3.17563180548459        1.80319364254928
H           -2.58857085096704       -2.91068214785026        2.55468802747921
H           -1.99135335604196       -5.10282818710292       -0.52581907566928
H           -2.27735017576902       -3.77494918451513       -1.65262972047846
H           -0.84366675855009       -3.78947551159665       -0.62558020603429
H           -3.94652439101530       -5.02198921937097        0.71164685940137
H           -4.69763527623799       -3.53909064001915        1.27264967464750
H           -4.60066570020459       -3.89563848394849       -0.46675005801852
H            2.75024062056894       -0.56505367434443       -2.55676564934479
H            3.82952159566864        0.33321747226713       -3.61222792918683
H            3.82307208799335        0.65059498679008       -1.87518906226076
H            0.69877803345539        0.10631459011702       -3.84414641601976
H            0.40769319414134        1.80793859523162       -4.23631635796766
H            1.73438013483293        0.92893789428725       -5.00294684151433
H            3.62676363578609        3.05774393988987       -2.72460461820962
H            3.33231958568218        2.55475797241408       -4.37959797087620
H            2.15365089591531        3.57859562370975       -3.56862315833504
