81
 energy: -124.890862382298 gnorm: 0.000358966865 xtb: 6.5.1 (b24c23e)
Si          -0.70755530294185       -1.85598727044011        0.34141347037525
O           -1.92221428728633       -0.91528383551307       -0.20468567562681
C           -2.71415770238312       -0.94984668444842       -1.37545239963535
C           -2.17009568327070        0.09954863817137       -2.32005359998248
H           -2.60603633681843       -1.93461976704412       -1.84695646821050
C           -2.74855892880126        1.34888441676539       -2.49218693132366
C           -0.99641180810256       -0.19816926130261       -3.00516014055212
C           -2.18162355970465        2.26957770436820       -3.35733333725659
H           -3.65135462466945        1.61498571826622       -1.96439147032070
C           -0.42146231964060        0.72790717356123       -3.85455819835157
H           -0.54184282607573       -1.16787517521591       -2.86847173406813
C           -1.01919076743735        1.96313363053226       -4.04028347432506
H           -2.65189882841626        3.23216395415845       -3.49569467245920
H            0.48829598765033        0.48113283950193       -4.38220062022752
H           -0.58195561601200        2.68302072070079       -4.71629912890948
C           -4.18319381729201       -0.75933764538452       -0.98147744643732
C           -4.62471145214657       -1.88719436448756       -0.18656803680961
H           -4.78729206217075       -0.68614796688941       -1.88942372443022
H           -4.29294547305000        0.15808141242556       -0.39697787395398
C           -4.93146247723663       -2.82813238282701        0.48506401298387
H           -5.21408050119288       -3.65350200084356        1.06658112512515
Cl          -0.85674011907763       -3.18960674699867        1.90970162683866
Cl          -0.88717499129577       -3.42556002697472       -1.14092586825103
O            0.78680558650380       -1.54888906089025       -0.42407624904280
O           -0.38167363349745       -0.64205617767898        1.63244568623457
C            1.67893731408816        0.50938889851381        0.28935790949486
C            0.37941020775185        1.12833033462654        0.38476085463059
C           -1.59463787990426        1.37180793405840        1.71957426306449
C            3.09916078685616       -1.37678811824050       -0.19361785976639
C            4.19773029303413       -0.59170714075211        0.00559027603022
C            2.81965208448699        1.32628161947324        0.57046007132462
C            4.10701107969954        0.76747452197782        0.40020288304851
C            0.09789927566269        2.33582761656316       -0.31702167287767
C           -1.07366338301368        3.04908954468703        0.02669453930023
C           -1.85588413960890        2.56604870221919        1.10730252181178
C            2.72817209060978        2.62810977803387        1.09734534597420
C            5.24663901218581        1.54088628990823        0.64922864431336
C            0.88852243743035        2.79725423724266       -1.38272429655183
C           -1.38905628831023        4.22760976513324       -0.66174139796776
H           -2.68012983812146        3.17485628204075        1.43282952920215
C           -2.33255523914316        0.90766382843402        2.96751522721156
N            1.86500922409692       -0.80344957552928       -0.04362186401186
N           -0.54194023891974        0.64460902459341        1.25905722027231
C            3.23234504541767       -2.83793511688864       -0.60322834893494
H            5.18458596691419       -0.99929422084936       -0.10974906388168
C            5.12731534098037        2.83458128823496        1.10329619297815
C            3.86206286232383        3.36484301637765        1.34861464102010
H            1.76311381984067        3.05739493121245        1.31279694038869
H            6.21966639473146        1.10226240438967        0.48579044508967
H            6.00769785482331        3.42933739075464        1.29246890314989
H            3.76832964541673        4.36282851922890        1.74912527840439
C            0.55706003298304        3.95706660984761       -2.04028127780163
C           -0.57676159265388        4.68238905255595       -1.67378638262623
H           -2.27709531194114        4.77445338841039       -0.38109840924228
H            1.75874325900378        2.23435108158864       -1.68219978605237
H            1.17598285997469        4.30669586002856       -2.85236373075620
H           -0.81993765330922        5.59577554285448       -2.19538762331844
C            2.63090088817597       -3.05222547442450       -2.00071928679184
C            4.70776054324057       -3.25861808952122       -0.67616246474249
C            2.55600253662544       -3.74657686676440        0.43310064081582
C           -1.29205426805893        0.59855157641612        4.05658304395709
C           -3.24873449533381        2.01637634557806        3.50317797707256
C           -3.20130689375713       -0.32748354500354        2.71085933221489
H            2.84338064730873       -4.06573540273169       -2.33028214653784
H            1.55502156414023       -2.92413991981054       -1.99905607084256
H            3.07268252651484       -2.35636870223747       -2.71211009919602
H            2.84239055004122       -4.77869949115618        0.24983000796882
H            2.86671925552923       -3.47676823863766        1.44071138095291
H            1.47717450832148       -3.69631229646360        0.37589502537194
H            4.75381737067598       -4.30671721332685       -0.96163270847327
H            5.25072214668775       -2.68987171404209       -1.42744818333484
H            5.20003133238320       -3.15586168013411        0.28815243160056
H           -0.65117296852540        1.46229566951968        4.22908435325602
H           -1.80180446991835        0.35603595333467        4.98536804142701
H           -0.67554043573898       -0.25014907985627        3.77882021306533
H           -2.69311201520106        2.92975949803533        3.70383163027289
H           -4.06113144855793        2.23101141294337        2.81323679822789
H           -3.69204116789218        1.68100347387012        4.43763898808730
H           -2.60761677172465       -1.18025429672087        2.40992677737547
H           -3.72986005139514       -0.59049010035006        3.62393784441163
H           -3.93499866255809       -0.12963995076465        1.93507262953605
