81
 energy: -124.889036423056 gnorm: 0.000376812745 xtb: 6.5.1 (b24c23e)
Si           1.05560454170788       -1.07396579188874       -0.43666728884168
O            1.86125472461519        0.17890340258550        0.23471183672441
C            2.78713429570566        0.19628385667356        1.29495220821589
C            4.12885936259242       -0.39588946211839        0.93888246432388
H            2.37020746234735       -0.37066894493126        2.13688118088164
C            4.58686426702834       -0.44809001478049       -0.36758955969205
C            4.93915845983212       -0.87657463988688        1.96088469640979
C            5.83197802262643       -0.98180662442739       -0.65175626152676
H            3.96147247268398       -0.09138817550239       -1.16909702504895
C            6.18547252974883       -1.40160260770120        1.67764844323310
H            4.58132641813522       -0.85030009180623        2.98048646439744
C            6.63564558675974       -1.45589048382662        0.36878861330534
H            6.16989950795137       -1.02850550383289       -1.67638059897570
H            6.80381305497662       -1.77819275983132        2.47932753212687
H            7.60644391508275       -1.87389607840555        0.14647928641437
C            2.96204787256746        1.66713308276802        1.72658778304570
C            1.81465796887387        2.12179120307757        2.47920400856245
H            3.85913797227045        1.75176950892481        2.34501145246994
H            3.09034355702077        2.28190767798872        0.83236424953656
C            0.85476266628504        2.43211784379176        3.12254380594803
H            0.01986550705325        2.73032819452844        3.68215195115847
Cl           1.59864256589738       -1.95067713316323       -2.22483731764741
Cl           2.00245809372027       -2.62199587923609        0.76083742327699
O           -0.35793686372035       -1.54054954088698        0.39386427666554
O            0.15428898636334        0.08118226436762       -1.48454218675745
C           -2.13766857222025       -0.06276369612932       -0.03131888785185
C           -1.27979886858325        1.09572294662757       -0.00163657652808
C            0.27247848085677        2.42279471515070       -1.24852692117563
C           -2.50237812174274       -2.43549479651794        0.16784321948687
C           -3.84673474231243       -2.23006477357555        0.04943326517112
C           -3.53732623722471        0.16129686783659       -0.22931547804398
C           -4.41161819079612       -0.94735914143080       -0.16507278832342
C           -1.57977104289412        2.19224179209021        0.85854797701201
C           -0.91311788594964        3.41873851176674        0.63526737607284
C           -0.04537635306761        3.50981456027194       -0.48265369238383
C           -4.07974950324016        1.41226924652153       -0.57804109994258
C           -5.78888280520762       -0.76655900501447       -0.33767376136187
C           -2.44462519519353        2.07723911043686        1.96014653987606
C           -1.17369234413010        4.50882177399134        1.47568290205954
H            0.36776101535168        4.47573083583715       -0.70940611178556
C            1.07101645882385        2.53724280638575       -2.53969137797962
N           -1.67947173059178       -1.34223258758743        0.11465265195573
N           -0.27188585018071        1.22449696937162       -0.90437019509080
C           -1.93315091390872       -3.83064805236708        0.38909276703761
H           -4.52794043867045       -3.05910920530890        0.09219755913461
C           -6.30011257738629        0.48083696683597       -0.61402664699869
C           -5.43491786028321        1.56411838916736       -0.75689350655601
H           -3.43259354758052        2.26372920087451       -0.71318510591173
H           -6.44084035772542       -1.62343521765627       -0.25685956580334
H           -7.36261963838526        0.61812693297296       -0.74384701994022
H           -5.83010438007095        2.53357583973544       -1.01995994576224
C           -2.67839699491369        3.16046136420652        2.77395892734404
C           -2.05331855793382        4.38388574741369        2.52595370715361
H           -0.67126444385081        5.44572301035601        1.28772421212533
H           -2.92204654531843        1.13177737858547        2.16656366433210
H           -3.34420167559196        3.06175872878862        3.61837632628323
H           -2.25168568218817        5.22708868753389        3.17057640551280
C           -1.23391043340512       -3.90252792736139        1.75495859321469
C           -3.04796166182593       -4.88727740514636        0.39506549374059
C           -0.96534148656890       -4.19971644312082       -0.74445114025168
C            2.40448131976847        1.78804479543179       -2.46818366500225
C            0.21388562904452        1.96805335271919       -3.68235163810030
C            1.37602827276797        4.00420718635382       -2.86949926146358
H           -0.92067532295110       -4.92592080852987        1.94241244682135
H           -0.35073712566466       -3.27545469970500        1.78734433268438
H           -1.91809215863666       -3.59803916612011        2.54531846564921
H           -0.78393651983493       -5.27101029676161       -0.73043968550732
H           -1.38589090578929       -3.93534278508638       -1.71282571461794
H           -0.00756094906497       -3.71062084034814       -0.63097004877849
H           -2.59606164884548       -5.86261003169164        0.55755922144725
H           -3.75899272193005       -4.71762796727742        1.20033971285789
H           -3.57247477067513       -4.91924958584659       -0.55706298102713
H            2.24326771702711        0.71763244472478       -2.43463317732956
H            2.99645956008946        2.01364295464213       -3.35244373951641
H            2.96513628747275        2.09482617299660       -1.58848997939549
H            0.03254973731955        0.90693597735478       -3.54339398120348
H           -0.74163081704842        2.48759131643240       -3.73795611008728
H            0.73511930259001        2.10108611314800       -4.62683705071753
H            2.03500074883056        4.45017817745261       -2.12835678198666
H            1.88180860610444        4.04759960660581       -3.83120586947536
H            0.46493549521540        4.59326864947963       -2.94527669926190
