81
 energy: -124.886585242843 gnorm: 0.000702356911 xtb: 6.5.1 (b24c23e)
Si           0.77336604243785       -0.96908140787025       -0.87256502990463
O            1.97482522768341       -1.36453919139137        0.13952559422677
C            3.34638348924365       -1.61589204212455       -0.03728665817075
C            4.15010378935018       -0.63326839658451        0.77647529070850
H            3.60287689887124       -1.52227360505557       -1.09933427368095
C            3.65556407599216       -0.15862329567773        1.98376603552793
C            5.39448648261721       -0.20480411248671        0.33458345019055
C            4.39200567489220        0.73906104227141        2.73592073693196
H            2.68157248295157       -0.48613250520611        2.31427872471496
C            6.13297695855673        0.68784649809325        1.09082430970346
H            5.77813837426074       -0.56687482114726       -0.60821423841025
C            5.63297397302755        1.16283313249995        2.29178320442049
H            3.99741467225686        1.10860899931591        3.67174633740672
H            7.09926997170817        1.01917886064181        0.73957647724394
H            6.20829137539131        1.86405941160057        2.87857668680106
C            3.64392312508796       -3.05696551607964        0.42462143743921
C            2.93672236746397       -4.00557343933585       -0.40827861325524
H            4.72065461238140       -3.23355689726766        0.36427914511438
H            3.32182069203946       -3.16662425840192        1.46364071199316
C            2.31917776446013       -4.74212730616871       -1.12024701107615
H            1.78369242490747       -5.40354133734206       -1.73283409630402
Cl           1.95681837305469       -0.88914814489598       -2.69356267021205
Cl          -0.56261926063376       -2.30471403832226       -1.75773979644368
O           -0.18697356325485       -0.89243453877914        0.65240999245242
O            0.38118640002857        0.63657660432664       -1.27972591767201
C           -2.10508467451597        0.17531504215772       -0.00739405283550
C           -1.41663386091480        1.44171825182303        0.01512019685846
C            0.42153325093961        2.86856171602687       -0.61039243526845
C           -2.22246567779854       -2.03287357042403        0.91819420703477
C           -3.53643791797347       -2.11234046292800        0.55227798022035
C           -3.44812739053838        0.08758875903837       -0.47515709992410
C           -4.16459897197317       -1.10555618228234       -0.22477282635334
C           -2.06958541391893        2.53305137162910        0.67234902369007
C           -1.46675934842829        3.81047146891357        0.61988961186505
C           -0.22048431746344        3.93271009428515       -0.04637666543565
C           -4.04610039335148        1.09165682372788       -1.25619820686842
C           -5.47138682465054       -1.23886643514041       -0.71276625550384
C           -3.23555562131689        2.38278341314011        1.44554207424722
C           -2.08542891768718        4.90455482792882        1.23490236347782
H            0.22185219429911        4.91088191686235       -0.07460757237921
C            1.75827435611609        3.03766722535440       -1.32114602145396
N           -1.52645451549757       -0.92758545320688        0.53497414623622
N           -0.19045922560900        1.64530881361615       -0.55595252248719
C           -1.55956002670623       -3.04754021159812        1.83890666174427
H           -4.12671698935993       -2.96820926653536        0.82400632581693
C           -6.04675825934307       -0.23043069390073       -1.44930252537640
C           -5.32582038386451        0.93159005698303       -1.72940671334944
H           -3.49029759732956        1.98672288929167       -1.48898852764260
H           -6.01564093893451       -2.14794021806864       -0.50509490703320
H           -7.05346889355461       -0.33848619442136       -1.82357738424833
H           -5.77497475258441        1.70736608777525       -2.33066460589579
C           -3.81908665908736        3.47016520841006        2.05378229075897
C           -3.26103550387851        4.74106153045547        1.93229023141687
H           -1.62174879604045        5.87664080545748        1.15735280226203
H           -3.67934702075494        1.40821061012967        1.56976260308229
H           -4.71592650390447        3.33310472699918        2.63866794321270
H           -3.73769710808926        5.58733851451250        2.40272242173483
C           -0.98681419037669       -2.29447918769395        3.05074141619306
C           -2.58619034887911       -4.06183289363938        2.35907692982618
C           -0.44447536990131       -3.83412441358429        1.14064356991829
C            2.82422715441532        2.13710815366796       -0.68248056693439
C            1.59676923709005        2.72489739489296       -2.81658598701796
C            2.26646879470273        4.48272140454965       -1.21183988426569
H           -0.56010361289347       -3.00790016200252        3.75140952333294
H           -0.20511836404685       -1.60711193819933        2.74423101275105
H           -1.77092120383566       -1.73588727409170        3.56002235549422
H           -0.09973339090313       -4.63060394470615        1.79619396623110
H           -0.81175249239523       -4.27662009459106        0.21920210942583
H            0.40199461142997       -3.20163759106912        0.90399683422479
H           -2.09707656361213       -4.72098458432226        3.07235523105409
H           -3.41106238649360       -3.56968714290605        2.86952102543715
H           -2.97380198689458       -4.67718231295449        1.55142610380408
H            2.66426581018146        1.09451718898844       -0.91946843926543
H            3.80576598771089        2.40877770576542       -1.06195895716404
H            2.83191287093981        2.25534973974849        0.39950976839258
H            1.36036213618434        1.68109730750111       -2.98591052266712
H            0.81007196240802        3.34182458462108       -3.24744632140656
H            2.52893940270119        2.94223219008691       -3.33102428295729
H            2.41822022148831        4.77462261936709       -0.17527511316008
H            3.22568878380112        4.54930483871441       -1.71922940490145
H            1.59046221611724        5.18386225121332       -1.69539275774269
