81
 energy: -124.883099468598 gnorm: 0.000448392059 xtb: 6.5.1 (b24c23e)
Si          -1.07835595664019       -0.24711854858454       -0.83479736635017
O           -2.30376890670068       -0.48827386068353        0.20195188547189
C           -3.11272941397809       -1.60986188577506        0.46020076016839
C           -4.55107114777802       -1.30825696681062        0.12592610350200
H           -2.77152172994122       -2.45856109843893       -0.14231794240745
C           -5.09765246277110       -0.07626194207677        0.45977818996680
C           -5.34350374113771       -2.25622937099588       -0.50536258768672
C           -6.41885327932177        0.20510692297816        0.16393510013768
H           -4.47413174863901        0.66358171321763        0.93848836821301
C           -6.66788135212472       -1.97689516384274       -0.79341838200541
H           -4.91732385838071       -3.20974806225534       -0.78082198805039
C           -7.20794950718995       -0.74663449126817       -0.45942175861484
H           -6.83451586874488        1.16885752457990        0.42013058687345
H           -7.27799281138983       -2.71905068323021       -1.28696026546643
H           -8.24041214416597       -0.52801449272622       -0.68995184059670
C           -2.97308083993609       -1.94944726011420        1.96111325786672
C           -1.58189636372763       -2.00955248190222        2.35401040484558
H           -3.46547534709815       -2.90454907509078        2.15824690322213
H           -3.46691823188767       -1.16780071972388        2.54459737046064
C           -0.42149916642508       -2.00556165400575        2.64761473011175
H            0.58933263484908       -2.02185258375620        2.92961488639679
Cl          -1.04587184277347        1.27427262637920       -2.26522728481475
Cl          -1.75668562933247       -1.69432273366181       -2.31364377721286
O           -0.49074135406408        0.84508450518212        0.45553463309841
O            0.38611927128813       -1.10779435991794       -0.92854583595192
C            1.66396472885770        1.32391126624555       -0.13676513940228
C            2.07263716802806        0.00713339766124        0.29804720784471
C            2.03172978793469       -2.39017087931893        0.10624805141211
C            0.08009901369173        3.10023208760153        0.14257442986891
C            0.98391332211396        3.98322197810822       -0.37840117145916
C            2.60738358617325        2.20856428146243       -0.73190517360721
C            2.23345139546491        3.56264616694115       -0.90177262520305
C            3.17956217746059       -0.05963474384182        1.20090673891924
C            3.69852871106855       -1.32935572195246        1.54283613407964
C            3.11756711145031       -2.46994288338780        0.92927898866158
C            3.84239946848039        1.77225337727676       -1.24236929831148
C            3.11855319080483        4.44660098758867       -1.53301778877308
C            3.71337372952254        1.07177682183523        1.84525728367801
C            4.76116434784212       -1.43331913530190        2.44651954620609
H            3.56735713620784       -3.42108146357825        1.14541549008747
C            1.49190656174449       -3.62116853887143       -0.61161001562401
N            0.42155380719384        1.78347445111891        0.15068142060344
N            1.48612620112672       -1.15410048366321       -0.12077716408958
C           -1.20272572932012        3.53863419580455        0.83365233571490
H            0.75734358520537        5.03291317713789       -0.42127089733652
C            4.33191035731788        4.00166080883985       -2.00313311886167
C            4.68782385797389        2.65924443514096       -1.86391384961487
H            4.11943147820259        0.73340472531554       -1.15026337754265
H            2.83040843985745        5.48093643013113       -1.64667591396720
H            5.00891246837808        4.68685433025886       -2.49031939609645
H            5.63210522413146        2.31353226503017       -2.25631375909712
C            4.75462504060937        0.94486307631026        2.73569636477132
C            5.29369492097860       -0.30550084767602        3.03064869880198
H            5.15526212543246       -2.41166227535001        2.67837306562570
H            3.30150002186630        2.04861395645233        1.64839356978383
H            5.15074551858518        1.82553640026666        3.21812770680549
H            6.11465035108947       -0.38878416117661        3.72621878096438
C           -1.18915899911083        2.97645498089174        2.26532646902691
C           -1.27365555023220        5.06801208848175        0.92854192018060
C           -2.46002526149711        3.05999778821256        0.09914084319052
C            0.05401550502931       -3.93711734297023       -0.18467983276816
C            1.56703067433548       -3.39277048738283       -2.13005609205354
C            2.34045745546299       -4.86181556291902       -0.29605472552358
H           -2.06123270988238        3.33850758911176        2.80430804984674
H           -1.21779294405868        1.89123985975127        2.25782839254664
H           -0.29615054224321        3.30364843156201        2.79594843209512
H           -3.33727889638138        3.50809638989997        0.56107041983637
H           -2.42637313979836        3.35581481552082       -0.94588648680411
H           -2.55816158595561        1.98248013913023        0.15000276509242
H           -2.16129081781903        5.34383638295472        1.49288579039335
H           -0.40869199433293        5.47632734678608        1.44643576352847
H           -1.35363840179140        5.51926168380541       -0.05706071604104
H           -0.63393045944907       -3.17743594315392       -0.53063203921418
H           -0.24985126857030       -4.88364370408602       -0.62444403904148
H           -0.01899175076933       -4.01306079591738        0.89802695863356
H            0.86146716611487       -2.63706624800615       -2.45533564715020
H            2.57261397034435       -3.09188983958861       -2.41978309338075
H            1.32195595623186       -4.31816286337018       -2.64429503572538
H            2.29607291528963       -5.11876707360756        0.75977556166848
H            1.94098595972472       -5.70389374915074       -0.85586177609766
H            3.37669841189364       -4.72632422585171       -0.59712515824522
