81
 energy: -124.882868357647 gnorm: 0.000327504346 xtb: 6.5.1 (b24c23e)
Si          -1.11170143371417       -0.27151012828056       -1.18444321824320
O           -2.24854758928112       -1.02462434910260       -0.31051588736322
C           -2.73858582623670       -0.88769184642133        1.00009142844108
C           -4.19070683385136       -0.47866647020457        0.97180017472691
H           -2.15370541558706       -0.13415369820678        1.53228659016116
C           -4.97844961857097       -0.73319270068154       -0.14138347965302
C           -4.75226954412119        0.14925376589765        2.07671319009043
C           -6.31081014876659       -0.35844682250338       -0.15104018292494
H           -4.53542363120556       -1.21235994403536       -1.00069583560261
C           -6.08494947338351        0.51787333423335        2.06729636871126
H           -4.14030858057406        0.35201233320124        2.94483659027594
C           -6.86692732177748        0.26569856938847        0.95206122855063
H           -6.91544043143951       -0.55492667649446       -1.02394906605018
H           -6.51363350442631        1.00729466581005        2.92988768141601
H           -7.90659211611255        0.55853246499709        0.94360747458583
C           -2.56487329589683       -2.23806424310640        1.72894938625437
C           -1.19784901250711       -2.39655505432388        2.17316339045365
H           -3.23355382081256       -2.27013538180962        2.59291237806642
H           -2.83572988140139       -3.04034032231717        1.03912405850745
C           -0.05924492637714       -2.45570371854997        2.53803149067319
H            0.93351369322703       -2.53630844233795        2.86723832263203
Cl          -1.18710419200901        1.51609463337418       -2.27883106090107
Cl          -1.77441505469973       -1.36938663207806       -2.89773949809922
O           -0.53719487759618        0.65243542834581        0.27742303450714
O            0.38985359880616       -1.05481722702505       -1.37747838468752
C            1.68609725123969        1.03870776319146       -0.06180896330971
C            1.93702885399638       -0.35383684593069        0.23445080809412
C            1.71324190938420       -2.68014086468204       -0.33145695119172
C            0.19531730291364        2.90226682014657        0.12472876678543
C            1.23366761985717        3.73543606248800       -0.20341709500246
C            2.76661511739610        1.87835900969765       -0.44849039513032
C            2.51973622581543        3.26684014585633       -0.55655173874985
C            2.91556691755198       -0.65688336088037        1.22746343149404
C            3.30066569073835       -2.00592833583626        1.40224872152114
C            2.69585385368502       -2.98197242739052        0.56879458999286
C            4.02831142497910        1.38240378655054       -0.82380650881234
C            3.54584735370778        4.12280624151036       -0.97961800132591
C            3.44884935350140        0.31134992870259        2.09764323194063
C            4.24641659975748       -2.34066507518260        2.37816906231812
H            3.02939196755667       -3.99612959590479        0.68674143503015
C            1.09926324927522       -3.75391632287267       -1.21965926247124
N            0.44215268611031        1.56529446756099        0.12083938842316
N            1.32949389963426       -1.37273449653565       -0.44058021687666
C           -1.10655817012613        3.55691287514062        0.58097139555300
H            1.07514031792363        4.79973909091938       -0.21576590817733
C            4.78055302188376        3.61712459974464       -1.31119283620837
C            5.01476506194181        2.24256075032794       -1.24213661454954
H            4.21840866177574        0.32096024554229       -0.78909975462273
H            3.34829401134529        5.18228758446892       -1.04458346405385
H            5.56824508842621        4.27860099383777       -1.63849738403283
H            5.97846975451089        1.85056136621524       -1.52985260713888
C            4.37029802558572       -0.04352588998371        3.05575227281533
C            4.78443537194107       -1.36748248985555        3.19096261933985
H            4.54326913893493       -3.37353071682048        2.48561196854603
H            3.13090274201557        1.33887739792310        2.01719314935705
H            4.76996055952107        0.71157956674118        3.71551540148379
H            5.51320661618817       -1.62964382034379        3.94265077060880
C           -2.24670247228157        2.61623115878410        0.96778685647929
C           -0.76777445767830        4.38282837697559        1.83811521019937
C           -1.62200560072831        4.48527705023941       -0.52872143799107
C           -0.37591475367146       -3.96110423245615       -0.85508310784803
C            1.25508851693340       -3.37940694935378       -2.70178169633695
C            1.80507774195374       -5.10407536879090       -1.02197398847406
H           -3.09089911821729        3.21134311429875        1.31154143676763
H           -2.58231192997817        2.02268765927348        0.12492351901172
H           -1.95090037708235        1.95759808276055        1.77919217331272
H           -2.56519964100610        4.92844729193355       -0.21949249773689
H           -0.92519953548767        5.28962906961846       -0.74407739149752
H           -1.78564001738494        3.91614000060466       -1.43897501947437
H           -1.66692732261888        4.87752692426296        2.19672651183665
H           -0.39489032564791        3.73583216183591        2.62986200924220
H           -0.01969980450412        5.14421676225779        1.63869857497169
H           -0.97045429144100       -3.08206048888672       -1.06361072438518
H           -0.77871762981294       -4.77942131967782       -1.44628997700527
H           -0.46768695828278       -4.20835195055307        0.20096405085357
H            0.62478460086219       -2.54204900435638       -2.97636173462987
H            2.29232191452384       -3.13305744696187       -2.92293324796642
H            0.96378874458984       -4.22655350080537       -3.31683329405233
H            1.67605132430885       -5.48009259162732       -0.00977701983524
H            1.35821326091940       -5.82794931038617       -1.69888658679746
H            2.86505389108333       -5.03975548108988       -1.25718410481852
