81
 energy: -124.884370077097 gnorm: 0.000703736799 xtb: 6.5.1 (b24c23e)
Si          -0.98159253917641       -0.42657878525441       -0.48630780288684
O           -2.30099746471875       -1.06868535409885       -1.16685514482390
C           -3.29588383373845       -1.93890480053806       -0.67755631471696
C           -4.31592979030405       -1.15962181859032        0.11088050945024
H           -2.83465930383004       -2.70079221105384       -0.03974328158130
C           -4.76436181021732        0.06329302827876       -0.37097034412990
C           -4.81048214221249       -1.64212564655732        1.31391782811026
C           -5.69433674681366        0.79622942921030        0.34347623531807
H           -4.36554124113378        0.44195484769720       -1.30035833828695
C           -5.74505884154519       -0.90999394655832        2.02488262177269
H           -4.45268865338132       -2.58629147186829        1.69731063411375
C           -6.18829714198182        0.30955811685458        1.54181696585858
H           -6.03432379130448        1.74845653609661       -0.03730119201279
H           -6.12365312172691       -1.28980879331236        2.96256556249050
H           -6.91452312216578        0.88189650262623        2.10073452770107
C           -3.95582474455216       -2.61764796091427       -1.89100991487427
C           -3.02290940160276       -3.49406082251515       -2.56440634814213
H           -4.82144108978189       -3.19054693935584       -1.54692342861111
H           -4.29106890464666       -1.84268959462462       -2.58452692475769
C           -2.22039621767493       -4.20630270293218       -3.09348610637715
H           -1.53265621970818       -4.83128453957618       -3.57881505057260
Cl          -0.88082374619721        0.84591791059469       -2.23311396540557
Cl          -1.15966389819699       -1.52456293347416        1.40219263295527
O           -0.56403547361784        0.85615254586707        0.58018017178140
O            0.52278808301392       -1.07917445447676       -0.93835047772293
C            1.60375526574629        1.31532390543779       -0.02835910125647
C            2.02866585939919        0.01083004934137        0.45169459917710
C            2.11817389277466       -2.37948828570853        0.17999121481100
C           -0.02831604907895        3.08057389625311        0.02703921176870
C            0.89075474738960        3.94175292697059       -0.50019421672537
C            2.56854360977185        2.18346267480935       -0.60975300228837
C            2.18707426706798        3.51747507946197       -0.89082772287534
C            3.06257286907953       -0.03523760195280        1.43086484947882
C            3.60049800399704       -1.29543575741799        1.78563860248901
C            3.12624374893834       -2.44294486464546        1.09895397267330
C            3.84677737684738        1.74671053924062       -1.00393900298848
C            3.09951418956289        4.38149318315422       -1.50820435486591
C            3.50641214512660        1.10535322715241        2.12572561268055
C            4.59368667352439       -1.37494118943434        2.76856555865018
H            3.59002800774322       -3.38293360518816        1.33445707553028
C            1.69678066316341       -3.58225328859606       -0.65297854794400
N            0.34246872853375        1.78105330965767        0.17554114578971
N            1.55662140672040       -1.16175711712302       -0.06061840109565
C           -1.37541392930350        3.53815402526711        0.56591656101199
H            0.64434915288075        4.97690308083707       -0.64954713564751
C            4.35352998658637        3.93787693957010       -1.86030002541852
C            4.72036623398178        2.61451153421911       -1.61373339037454
H            4.13728368417305        0.72203630906063       -0.83164377698578
H            2.80148045761455        5.40027988081810       -1.70570764363731
H            5.05213166640924        4.60788641040687       -2.33792086959738
H            5.69709412174917        2.26631874934522       -1.91390917158926
C            4.47942926157252        0.99907679772012        3.09107955221179
C            5.03555406698943       -0.23941723225397        3.40908837120910
H            5.00634909658042       -2.34152763904626        3.01608083432715
H            3.07665060390022        2.06905407162708        1.90232249136966
H            4.80937092016404        1.88346384691503        3.61489295548783
H            5.80211027367014       -0.30596548248336        4.16595769125314
C           -1.43202032433850        3.20173772923474        2.06577997326518
C           -1.53316072756058        5.05702602924710        0.42069555601744
C           -2.55004937296210        2.87994104691126       -0.16874692682505
C            0.21478946829794       -3.93098576666261       -0.46182479274101
C            1.98544466368184       -3.26933726536979       -2.13073963522151
C            2.51379456630350       -4.82401134629586       -0.27183055580774
H           -2.36998247299170        3.56171998885788        2.48127438147892
H           -1.37760108817137        2.13074673208546        2.23432926138251
H           -0.61122290217829        3.68298359303887        2.59557430648233
H           -3.46976876164927        3.40552289461774        0.07721183785708
H           -2.39514059119046        2.91932196604739       -1.24344941536493
H           -2.67299764626624        1.84324220423206        0.12445728536384
H           -2.48187965123116        5.35446269342963        0.86093493303082
H           -0.74354894162403        5.59258431416918        0.94259977535530
H           -1.54323745975012        5.35026521566833       -0.62577095551018
H           -0.43072698901963       -3.24399801910054       -0.99711114869150
H            0.02338415497052       -4.92939672169929       -0.84751876777127
H           -0.05028061691335       -3.90902991675639        0.59179167226891
H            1.38648856357071       -2.43575004351816       -2.48334761200297
H            3.03889627763976       -3.03147050823061       -2.27104077295263
H            1.74553980870171       -4.13991474430067       -2.73577367149063
H            2.32825890029816       -5.11435942777784        0.75912404465293
H            2.21161365876062       -5.65069147258100       -0.91022122455231
H            3.57915963755485       -4.66443569018259       -0.42106853949702
