81
 energy: -124.889037517764 gnorm: 0.000445813207 xtb: 6.5.1 (b24c23e)
Si          -1.16560833668938       -0.94919178863016        0.46194596877027
O           -1.88460868177999        0.14771795703291       -0.51248275921033
C           -2.68289176674698       -0.04639982374358       -1.65684324936066
C           -4.02761142826443       -0.66244272315573       -1.35789112312334
H           -2.14495260217429       -0.70233895045023       -2.35289655181895
C           -4.66137326077261       -0.47495540394352       -0.13971735508533
C           -4.65769712643392       -1.41533720833745       -2.34144531492591
C           -5.89933256161948       -1.04555838621021        0.09990510201800
H           -4.17642177329328        0.09831490738223        0.63334992892619
C           -5.89745582634549       -1.97800977585689       -2.10462010234486
H           -4.16337215530464       -1.57311585139006       -3.28957808619805
C           -6.52115029020463       -1.79627822413816       -0.88121662520942
H           -6.37410510000070       -0.90462698977110        1.05969706189808
H           -6.37355108744413       -2.56940398803198       -2.87302845719896
H           -7.48508275624048       -2.24556936586567       -0.69230899556166
C           -2.87805219803649        1.33081499636619       -2.32248541617758
C           -1.66508875597958        1.76584511380420       -2.97772940069410
H           -3.68194950108310        1.25592158921181       -3.05928401760539
H           -3.16878389271874        2.05326220459414       -1.55597442784884
C           -0.64579606476995        2.06769983059490       -3.52686261501143
H            0.23854013753053        2.35464444554236       -4.01139709069205
Cl          -1.94920081464743       -1.51315272786747        2.28492538430693
Cl          -1.92868225123797       -2.70926333381647       -0.56373673361772
O            0.34847885407565       -1.51713580319208       -0.07716189789220
O           -0.41233167018267        0.39293525287349        1.40132370588092
C            2.05298249649974        0.06024834133043        0.29553998589830
C            1.20099382654833        1.17318053237823       -0.03941081970784
C           -0.49313419115109        2.66016604121935        0.76288934233614
C            2.44574631644581       -2.29941674658448        0.58377547176741
C            3.76784596752451       -2.04382715417254        0.80689344477205
C            3.41968580608548        0.35027196004471        0.60894553148604
C            4.30100012880931       -0.73047450817735        0.83875623747754
C            1.60667332313572        2.11530304970253       -1.03013742921862
C            0.93094558933287        3.35530454280925       -1.09048476318097
C           -0.06968178771438        3.61452019666505       -0.12006474505718
C            3.91311796533987        1.65548934827402        0.79183916400184
C            5.65041784145338       -0.48873068937811        1.12187132662925
C            2.59253763361944        1.82833071684591       -1.98926783677292
C            1.30628505670915        4.29909455037875       -2.05567714326619
H           -0.50074317883417        4.59880764010058       -0.10686836768019
C           -1.45728967715414        2.97061521655254        1.89963853460280
N            1.62047483916597       -1.23594770240023        0.33157092644218
N            0.08541477024058        1.43074790949037        0.69404091302911
C            1.90570280890235       -3.72320782244408        0.58193128008432
H            4.45164050681713       -2.84969828122019        0.99709624479702
C            6.12173478995222        0.79977183727197        1.22663632548101
C            5.23940259849637        1.86951967443720        1.08624416378931
H            3.25022198080881        2.50132197357762        0.70749505971117
H            6.31157792899662       -1.33046899985479        1.26388969368974
H            7.16307678941521        0.98374559301028        1.44201158970938
H            5.59733204528595        2.87928301558462        1.21836809364010
C            2.93435994657145        2.76694556194784       -2.93393833542183
C            2.30312983859087        4.01202096559998       -2.95934973213788
H            0.79720173843503        5.25082100976503       -2.08189705339207
H            3.07808371317156        0.86467871252779       -1.98269492953045
H            3.69197797902431        2.53661931377470       -3.66798586091152
H            2.58941206567345        4.74235332135533       -3.70146334533955
C            1.40260363449432       -4.09241665599318       -0.82154535281430
C            3.00490610291952       -4.73087272182009        0.95001293916290
C            0.78540401399612       -3.87152046465508        1.62270444011155
C           -2.76947959416474        2.19089743758708        1.77799419276115
C           -0.76252829848022        2.61835896391948        3.22532520210010
C           -1.80383295013655        4.46477130696828        1.93537221824591
H            1.08686302800125       -5.13217590772674       -0.82522797747027
H            0.55225626459062       -3.48744812304091       -1.11406458098287
H            2.19926599218599       -3.96754471557642       -1.55322033659091
H            0.64588974988350       -4.92280576077091        1.85932764420672
H            1.03575460162419       -3.34490573380183        2.54160627777098
H           -0.15870981565490       -3.49895158914940        1.24907561678241
H            2.57308687139186       -5.72858500527982        0.94338524646573
H            3.81776426267454       -4.72260952111347        0.22757179454485
H            3.39800337270562       -4.54442547668652        1.94676991830075
H           -2.60530189377429        1.13266764681855        1.93969454136521
H           -3.47293516177750        2.54338207785188        2.52918009176552
H           -3.20852784422626        2.34069766435193        0.79442659719339
H           -0.56522968482328        1.55301666073027        3.29152265151736
H            0.17726324718340        3.16062339703962        3.31961694478092
H           -1.40629252591019        2.89537612552877        4.05619747789724
H           -2.35117143896155        4.76765367185279        1.04583003880240
H           -2.44003659015394        4.65488437446532        2.79658625673629
H           -0.91176988944100        5.07850427510087        2.03828025737774
