81
 energy: -124.890543296227 gnorm: 0.000950686575 xtb: 6.5.1 (b24c23e)
Si          -0.51159317766567       -1.79345546158638        0.80083972717034
O           -1.91224102553797       -1.02573656360804        0.47406804695975
C           -3.04356266937342       -1.37181225487966       -0.29841731447997
C           -3.13799764436726       -0.35482597440732       -1.41392421901032
H           -2.87952080385654       -2.36257384261308       -0.74139602931977
C           -4.06339571743111        0.67782136593034       -1.44092156332355
C           -2.20137749103862       -0.44525098632851       -2.43894915051429
C           -4.06922515511755        1.58489387291672       -2.48773318635682
H           -4.79456448254210        0.78194318986311       -0.65457993916985
C           -2.20301593110410        0.46405522526170       -3.47890863852846
H           -1.47465231776176       -1.24430421781407       -2.41347584877935
C           -3.14462260533347        1.47878819025736       -3.51012107074729
H           -4.80193279552730        2.37827068264951       -2.50275748457643
H           -1.47525065447387        0.37722814279528       -4.27213227273391
H           -3.15680427864133        2.18396922090026       -4.32790297987360
C           -4.27325254316854       -1.45480223975857        0.61336917409788
C           -4.07030454591485       -2.49498359719824        1.60155840381006
H           -5.15159717924478       -1.68305691190155        0.00452256643811
H           -4.42372286008204       -0.50084488718928        1.12474309419568
C           -3.83076426300378       -3.34112085105231        2.41236277953342
H           -3.63343355923298       -4.09380484956623        3.11535146758837
Cl          -0.11695608371437       -2.76844942391744        2.57283569719007
Cl          -0.94867099665182       -3.63094850813823       -0.25642422679779
O            0.68107545175803       -1.60243315400603       -0.40672854103469
O            0.05395634056340       -0.32058450906112        1.67942273002604
C            1.55777244343289        0.58044447871472       -0.39375698320474
C            0.28392643953600        1.16623319092641       -0.05599756643770
C           -1.25163330609002        1.63699806628167        1.71914851661006
C            2.95675796669760       -1.33018412507207       -0.84385877519084
C            3.99792083576305       -0.49218314951775       -1.12058008885250
C            2.65648329296309        1.46911027400881       -0.61738445057951
C            3.89712148506506        0.91841933495260       -1.01262039931683
C           -0.29160456099762        2.18233165032215       -0.87212226633345
C           -1.38613703436941        2.91281066057561       -0.35490584003316
C           -1.78403487305044        2.65825111079960        0.98279754651131
C            2.59547282460590        2.85376696700230       -0.37254386680852
C            4.99265317258750        1.75579235067075       -1.25227583278139
C            0.12786773497735        2.42577423488127       -2.19087820427046
C           -1.99336650746066        3.89609369049685       -1.14627008680316
H           -2.53477596729423        3.30040014895787        1.40675341860302
C           -1.56096444909216        1.43895874470124        3.19671771262188
N            1.75980124967203       -0.76881294103755       -0.48799340908791
N           -0.31379386062914        0.85240459665623        1.12390811823065
C            3.10494236028895       -2.84203624981252       -0.95646147648801
H            4.95255923780069       -0.88954221368075       -1.41060838735919
C            4.88727748430231        3.11508500384534       -1.06407128452197
C            3.68930948926639        3.65568609538736       -0.60063455007854
H            1.68702235647392        3.29696869937283        0.00191830336815
H            5.92285578743893        1.31572293950408       -1.57925870718384
H            5.73346055860473        3.75844628868365       -1.25018217302811
H            3.61908684267989        4.71565473935117       -0.40884928357137
C           -0.48381950481078        3.39789930380397       -2.94461986559086
C           -1.54005998667206        4.14341615017606       -2.42051111426432
H           -2.81945813815232        4.45844582031494       -0.73733659818525
H            0.93486029918743        1.84348321800514       -2.60794682697460
H           -0.15035593495007        3.58052993209859       -3.95484298297515
H           -2.00709654998855        4.90784318103316       -3.02284737232564
C            2.19743203954644       -3.37960238928980       -2.07339518572851
C            4.54690995082845       -3.22931212799662       -1.31716599951440
C            2.77911063786554       -3.51287535492551        0.38599365815436
C           -0.23484304808188        1.34911233168808        3.96945547257402
C           -2.33849730597814        2.63923862922563        3.75448702931915
C           -2.40047416772129        0.18304429854109        3.44889420282501
H            2.38678159203004       -4.44119951396337       -2.20780865185809
H            1.14791529045294       -3.25905877843017       -1.83139225946933
H            2.40929451165515       -2.86782357221769       -3.01081413454588
H            3.14425950254895       -4.53640368870394        0.37731967887681
H            3.25842890651714       -2.98466036645556        1.20807487302636
H            1.71421270066939       -3.55280070402444        0.57024361597704
H            4.60828860156121       -4.31316404553484       -1.37604365811072
H            4.83968548700346       -2.83200262915588       -2.28624961577383
H            5.25030249035309       -2.89742332073462       -0.55702368146216
H            0.38867689328944        2.21722013027055        3.75943547664140
H           -0.43935063316913        1.32177246902027        5.03661866593988
H            0.31152192399812        0.44909275767941        3.70767370054365
H           -1.80211487017508        3.57098933708155        3.58908826724474
H           -3.33105673608103        2.71227065930662        3.31694491166075
H           -2.46184274695904        2.50708866427767        4.82659891566872
H           -1.90032396423666       -0.71269102405080        3.10451264335032
H           -2.58447578385946        0.07921365701237        4.51542567733683
H           -3.35825547136950        0.26084673129174        2.94189395171283
