81
 energy: -124.890527387082 gnorm: 0.000861003915 xtb: 6.5.1 (b24c23e)
Si           0.46050024048076        1.87455531890087        0.65929910277791
O            1.88116747147639        1.12219472278975        0.39098799135887
C            2.99729144744387        1.43204960864751       -0.41861781110762
C            3.11192991859186        0.32520092848182       -1.44235911787886
H            2.80282197650777        2.37629009358277       -0.94268274860542
C            4.02833138585966       -0.71220335444226       -1.35426982004474
C            2.20262052006211        0.33090813602805       -2.49480832909071
C            4.05309262893891       -1.70795737950142       -2.31621230360209
H            4.73745674081938       -0.75173131273751       -0.54224571901447
C            2.22259749830948       -0.66713921531311       -3.45014637237083
H            1.48033690514184        1.13204026092930       -2.55679156815527
C            3.15559681601336       -1.68672323564437       -3.36717131665009
H            4.77879669053339       -2.50464430871051       -2.24172188377562
H            1.51392953274882       -0.64756039713860       -4.26507220115683
H            3.18167444177689       -2.46205010556443       -4.11833376364096
C            4.23101169869369        1.62675463341544        0.47043372223081
C            4.01034090642864        2.74634093156792        1.36318941751172
H            4.40941258022998        0.72778338542952        1.06513176695459
H            5.09887126988986        1.81921000815075       -0.16536562570164
C            3.75427325576604        3.65785683995793        2.09380578116305
H            3.54013040917955        4.46407492878158        2.72854985958050
Cl           0.05187722681330        2.98662584249154        2.34486268262096
Cl           0.84046586410421        3.63077873553312       -0.54842584261696
O           -0.73277493126003        1.55387974555823       -0.52061752429462
O           -0.06326840316037        0.46656527031369        1.65924645463307
C           -1.55032175490995       -0.64312965680409       -0.32573313867157
C           -0.26103440149235       -1.16516868718182        0.05382263804069
C            1.29061101580371       -1.44822974163203        1.85516814809534
C           -3.00288727660159        1.18896753452294       -0.91273342051008
C           -4.01982480227631        0.30400151849896       -1.12584398346083
C           -2.62443845191829       -1.57603506736974       -0.47934568608874
C           -3.87840138429504       -1.09159508213699       -0.91724190828293
C            0.33781857367256       -2.23177481498336       -0.67704978494294
C            1.44566667461793       -2.89535147783893       -0.10181066615798
C            1.84140373322535       -2.51871975467456        1.20735012490290
C           -2.52708056283712       -2.93560468123252       -0.12872078616029
C           -4.94836318617674       -1.97553085822189       -1.09870290388445
C           -0.07479972039667       -2.59078023606428       -1.97130942183113
C            2.06912722105374       -3.93245901717894       -0.80730435801010
H            2.60649407615907       -3.10662856768762        1.68143278105835
C            1.60002539328257       -1.11751355629889        3.30878045703029
N           -1.78928853451205        0.68869062446707       -0.52400898388798
N            0.33246991307551       -0.73911056107089        1.20049611896213
C           -3.19478200782050        2.68427249970005       -1.12910668084228
H           -4.98570383836303        0.65233856327376       -1.44054291348929
C           -4.80563286361381       -3.31358622876319       -0.81042597371402
C           -3.59642853225927       -3.78322830521488       -0.30091040255118
H           -1.60953449304358       -3.32325316089057        0.28330204241388
H           -5.88862115202870       -1.58759444980789       -1.46105697987526
H           -5.63159072271017       -3.99326285812257       -0.95336334144218
H           -3.49811365567269       -4.82326175242108       -0.02912049015885
C            0.55431494806352       -3.61178924970359       -2.64123139844650
C            1.62075871430272       -4.29429263617679       -2.05557686971833
H            2.90387591020808       -4.44471664019811       -0.35270496525982
H           -0.89062954573987       -2.05892704074832       -2.43566894579922
H            0.22592816502722       -3.88322673492569       -3.63295861132677
H            2.10016705011976       -5.09961588610969       -2.59113819785427
C           -2.32150071954399        3.16355016491178       -2.29850495978179
C           -4.65302295139337        3.00626240466313       -1.48809807419267
C           -2.86296819849884        3.45791055891917        0.15572987544517
C            2.39290081580878        0.18467277465962        3.45344416517511
C            0.27333667385854       -1.01345039449548        4.07872934008872
C            2.42399950150340       -2.23792108873770        3.95836444868087
H           -2.53472882751173        4.21021792219803       -2.49802265305211
H           -1.26511419878572        3.07840009078271       -2.07155934179159
H           -2.54198167031228        2.58685942591505       -3.19527779720938
H           -3.28692920935094        4.45674292516297        0.09788868041197
H           -3.28088510850579        2.95868542485834        1.02777375426400
H           -1.79632516083827        3.56933232285264        0.29493319184607
H           -4.74670221102315        4.08149489318862       -1.61847960415437
H           -4.95079800146547        2.53691307806222       -2.42278399099016
H           -5.33326058147548        2.70649277795141       -0.69429796209557
H            1.85337988660893        1.03267866683790        3.05289526304276
H            2.58678763345326        0.37419405659781        4.50637528049978
H            3.34601263136591        0.10681403805302        2.93817954875978
H           -0.30950693864488       -0.16259975444506        3.74174955945313
H           -0.31484843150991       -1.92110949222971        3.94961045593236
H            0.47912478135268       -0.88377580631133        5.13808985985237
H            3.41446293569434       -2.31400906608602        3.51647014234640
H            2.55225028517833       -2.00926419064952        5.01364322653935
H            1.91927347070705       -3.19838485121012        3.88068426169596
