61
 energy: -107.988857678097 gnorm: 0.000748660763 xtb: 6.5.1 (b24c23e)
Si          -0.98705245725484       -0.79782257242530       -0.35426293898571
O           -2.51527274833154       -1.32151006296528       -0.36672260484840
C           -3.70395118970247       -0.83657166786969       -0.93586246214964
C           -4.44661872155411        0.03444532780745        0.04536449096520
H           -3.47344137405859       -0.25524299475494       -1.83593240154069
C           -4.26860035847379       -0.12670615002176        1.41202897115770
C           -5.34142513731710        0.99095135512133       -0.41810771689682
C           -4.97409339641070        0.66063865597845        2.30530449697371
H           -3.56659867499446       -0.86399686566508        1.76853505133546
C           -6.05102094438526        1.77348067056565        0.47554822302027
H           -5.47486543532492        1.12532606242530       -1.48191632149083
C           -5.86872089402995        1.60993684293483        1.84009542030492
H           -4.82542899554034        0.53176929099376        3.36731063468154
H           -6.74407645713773        2.51644926815930        0.10732223738562
H           -6.42059012025836        2.22409022079754        2.53732116272372
C           -4.56332806713340       -2.05580632505669       -1.32422859242611
C           -3.97146429828905       -2.76173480686153       -2.43930478715130
H           -5.56727876947736       -1.71642973273773       -1.59231092535827
H           -4.62835393720528       -2.72068859471560       -0.45947322002888
C           -3.45360309967258       -3.30785596218202       -3.36904401934573
H           -3.01387575736120       -3.79740228772191       -4.18550692304191
Cl          -1.27269483472478        0.70869742601156       -1.91411382610322
Cl          -0.62577180108837       -2.40012373101087        1.04036186053686
O           -0.41322764803930        0.31386158208192        0.81768815138510
O            0.51023019372760       -1.07542946819229       -1.18146483793783
C            1.74398126924032        0.96234559944395        0.15895677233085
C            2.20140186565034       -0.40051588640403        0.27556150384551
C            2.00770516743251       -2.67992755166074       -0.42647517782639
C           -0.04292811382187        2.54816706782875        0.33363310673218
C            0.78561995101622        3.59176638760712        0.02649239928205
C            2.63189083560248        2.01581458822422       -0.22797507118930
C            2.14992897756578        3.35162733819107       -0.27526175272268
C            3.32020611662058       -0.75190008944643        1.09300634136636
C            3.79663215510631       -2.09001249693401        1.08153823781729
C            3.12138563921934       -3.04341134416581        0.27943547480951
C            3.94831441148623        1.76945273686410       -0.65640590866310
C            3.01405019833899        4.38801307335405       -0.65157500122444
C            3.91400859749539        0.16140576575478        1.98195401408905
C            4.89337204419397       -2.43994539885555        1.88083858392430
H            3.45391141487462       -4.06777850209412        0.25547905628961
C            1.26668762145287       -3.59062595927584       -1.20891332734614
N            0.44769419510061        1.28572972184046        0.41864374550353
N            1.59059054354988       -1.38954639489445       -0.42830295059111
C           -1.41599871249665        2.71948480615728        0.61013376696455
H            0.38530373499080        4.59081568743872       -0.02060701406350
C            4.31372285717549        4.12127342460306       -1.01529505065606
C            4.77093460450006        2.80425533984411       -1.03567719387555
H            4.31694335299238        0.75667044561868       -0.69119069108607
H            2.63633181067870        5.39928848189102       -0.66067128149270
H            4.97313451534706        4.92484557178131       -1.30524445688200
H            5.77836201518540        2.59212014557877       -1.35959154607743
C            4.97801787302077       -0.21368917667427        2.76754540470817
C            5.48497626425011       -1.51177394052593        2.70539594687451
H            5.25711606365338       -3.45568689364099        1.84499870853996
H            3.52691874869810        1.16587493549593        2.04979333991073
H            5.41998675130751        0.50174755876613        3.44414071096936
H            6.32757250129404       -1.78953111680337        3.31992329057395
C           -2.58531059427516        2.85136914595142        0.84631923719763
H           -3.61089501428904        2.96069284772956        1.03970205490488
C            0.62650183792820       -4.34739395544611       -1.88546966477208
H            0.06178542397586       -5.01898044384423       -2.46016473131545
