61
 energy: -107.993026799524 gnorm: 0.000922383408 xtb: 6.5.1 (b24c23e)
Si          -1.25180660983761        0.17796507130347        1.37221004590631
O           -2.29592694908002        1.04553940214794        0.49027416553334
C           -2.64188063902678        1.00185923351105       -0.87246526862659
C           -3.59673677317448       -0.12569267566032       -1.16760163770974
H           -1.73516557477726        0.87376167043846       -1.47430131740575
C           -4.45025568430876       -0.60642813864895       -0.18539565875728
C           -3.64949878122578       -0.67134143129268       -2.44375892875313
C           -5.34248072742830       -1.62417050264223       -0.47419079322725
H           -4.40408903025453       -0.18489276663716        0.80695764742540
C           -4.54842626202911       -1.68123729938693       -2.73508823789333
H           -2.98126797504133       -0.30373121089845       -3.20980663897935
C           -5.39708123569484       -2.16033691843246       -1.74985271650071
H           -5.99804294589784       -1.99710138055195        0.29873547926793
H           -4.58297601911410       -2.09953141209170       -3.73093351006052
H           -6.09715199948242       -2.95192712724837       -1.97682259555686
C           -3.29185077595966        2.35694138020431       -1.21575089688060
C           -2.30565668837869        3.41442183394795       -1.19195269126438
H           -3.74931096505141        2.29751266003781       -2.20661802630254
H           -4.06642357070101        2.56212869692470       -0.47345293478372
C           -1.44745976513441        4.24805080866566       -1.16568297296344
H           -0.72413561397144        5.00662226802698       -1.14159265085166
Cl          -1.42765114791372       -1.75207223703309        2.10180896268808
Cl          -1.97323503218365        1.08163037200395        3.12901176278106
O           -0.52695007342123       -0.51107608292310       -0.24431448423563
O            0.32185037847192        0.77802841010515        1.70668633787171
C            1.75605529443531       -0.84457764446208        0.00992112580503
C            1.91365854947582        0.58211228494063       -0.02225262754406
C            1.11931440556446        2.71646045384755        0.72595054571710
C            0.27326043191418       -2.68279406348748       -0.31371237794210
C            1.30352389600961       -3.58359519115458       -0.24074227820504
C            2.84712709902891       -1.75037134587848        0.18716082946384
C            2.61584143588713       -3.14432627559193        0.05533621221125
C            2.83332102003415        1.23485942033565       -0.90428189275418
C            2.90062276477474        2.65419877444626       -0.90784421003950
C            2.01284170161792        3.37803515896712       -0.06995266856751
C            4.12420099099867       -1.31289557502757        0.57585314442060
C            3.68099507506511       -4.03943245970350        0.23364240378761
C            3.61286205166392        0.53298977683857       -1.83948419263120
C            3.80088842529215        3.30440259782107       -1.75988210316145
H            2.02708059384089        4.45537107919210       -0.06990559473886
C            0.20272650216900        3.37975743420624        1.56799673111868
N            0.50761099210305       -1.35485773977637       -0.15834773572556
N            1.10747276511336        1.35743273620785        0.75772099415515
C           -1.04969920494287       -3.07258188008904       -0.61424129483016
H            1.09792754793823       -4.63189421065674       -0.38050925961507
C            4.93115954446305       -3.57986268701791        0.57288212331566
C            5.14592998755900       -2.21388701963511        0.76151106415514
H            4.29896769662803       -0.26013582760057        0.73449595915134
H            3.49595585737623       -5.09587731457345        0.11071857168497
H            5.74538011953847       -4.27459114414527        0.71186594227278
H            6.12062638972977       -1.86180779085803        1.06278754093280
C            4.47852563976572        1.19826990096863       -2.67787821787215
C            4.59329468202123        2.58541848798345       -2.62670022890182
H            3.85632629322498        4.38227655133706       -1.73069838908285
H            3.53218516663587       -0.54016920063783       -1.90514192261181
H            5.06926969289272        0.63671314853910       -3.38547245891644
H            5.28557589583370        3.09426572190786       -3.27963275870292
C           -2.16666707246035       -3.39208187547057       -0.91499170722058
H           -3.15216020318234       -3.66442930235090       -1.14873193457957
C           -0.59426700046589        3.89993453762537        2.29980883194949
H           -1.29730356692370        4.34478885907890        2.93872039278605
