61
 energy: -107.992176486058 gnorm: 0.000447257940 xtb: 6.5.1 (b24c23e)
Si          -1.24829060130413        0.00738346570716       -0.77055887809812
O           -1.98961236164593       -0.81474384828894        0.40988053102478
C           -3.24340643457343       -1.45076295100550        0.40427177830593
C           -4.36291424254309       -0.44133651328964        0.41700314908387
H           -3.32286217178593       -2.07584824897381       -0.49414018228744
C           -4.20968900009867        0.75585177126021        1.10273511277999
C           -5.55629060741040       -0.70494929328676       -0.24043285803500
C           -5.24105079495246        1.67691758112141        1.13046702086320
H           -3.27065385663043        0.96425012554344        1.59361074600816
C           -6.58717907035398        0.21712591374745       -0.20875578487364
H           -5.67057880419273       -1.62963896961967       -0.78707831215009
C           -6.43238865775490        1.40887700424510        0.47875083641406
H           -5.12031930728604        2.60668404664410        1.66688434178380
H           -7.51132508801551        0.00809269563761       -0.72716567450355
H           -7.23669693852226        2.12972418069119        0.50085051888173
C           -3.31556319446429       -2.33509578991651        1.66288268845624
C           -2.32075102799869       -3.38382824077395        1.61870595306641
H           -4.31438450819800       -2.77341926905354        1.73189762354086
H           -3.14071722501533       -1.70459332655981        2.53814676273729
C           -1.48229980413073       -4.23441428197106        1.54884365837476
H           -0.75938812036228       -4.99240520688074        1.50282966870247
Cl          -1.67022466058068        1.87994283850849       -1.55881191160450
Cl          -2.18446038187754       -0.98298767296905       -2.44095046523929
O           -0.35640868726395        0.77969471968487        0.64492676978801
O            0.25801219335400       -0.59617123867208       -1.33090493745496
C            1.87631069323779        1.10480896781710        0.08277785329798
C            2.04936042540658       -0.31719227262143        0.16902439775260
C            1.19717788648675       -2.48564915419455       -0.38282920401821
C            0.43142620109739        2.95424952420547        0.49266323225174
C            1.43711953897624        3.85182034513766        0.24384775144298
C            2.93106409147802        2.00109989556764       -0.27401262362305
C            2.70710652385444        3.39986138596875       -0.18881784082570
C            3.07594084204947       -0.92249239427021        0.96268589707725
C            3.15640363587416       -2.33959763681127        1.02529436798163
C            2.18510274867039       -3.10612165351156        0.33099130988396
C            4.15514254137727        1.54543154078497       -0.79110523764252
C            3.73540126453407        4.28546984412356       -0.54203037688680
C            3.95491536885423       -0.17278757926162        1.76259772827109
C            4.15763919776743       -2.94444203171445        1.79477151538807
H            2.21070350524787       -4.18221008554988        0.37765577796883
C            0.20529047361104       -3.19454475975923       -1.09210244516971
N            0.65344055173835        1.62037462114565        0.37836483440080
N            1.16456257280783       -1.13042356458240       -0.46995658465233
C           -0.84083874607068        3.36911611721157        0.94272147137417
H            1.24317368401809        4.90582364125185        0.35442494962920
C            4.93941260004831        3.81011433942723       -1.00569708207130
C            5.14029180195310        2.43667437048939       -1.14643394449395
H            4.31773667677019        0.48597696066022       -0.91357290184613
H            3.55900000610760        5.34676784781216       -0.45299570621903
H            5.72540981595544        4.49766045957266       -1.27845685102654
H            6.07419499680083        2.06998424073400       -1.54409655591537
C            4.91978709515202       -0.79323369642459        2.52314451303413
C            5.03989360532516       -2.18120283155302        2.52576209149124
H            4.21926660406929       -4.02223673190281        1.81093002183053
H            3.87194627026704        0.90191814902901        1.78529368865634
H            5.58513364848513       -0.19609813338753        3.12791170884881
H            5.80902983945765       -2.65503526630344        3.11608795174526
C           -1.89501050235940        3.74358389806733        1.37687089375771
H           -2.83147910113889        4.06533502715936        1.72208214896493
C           -0.64743940273265       -3.76409198749446       -1.71589311011097
H           -1.39930560157544       -4.25375088834831       -2.25933279611818
