61
 energy: -107.998880795533 gnorm: 0.000546639549 xtb: 6.5.1 (b24c23e)
Si          -1.13311913271161       -1.10687378383064        0.12341574377544
O           -1.83855739884004        0.34598732649445       -0.08113665015899
C           -2.91411041939253        0.73849642302330       -0.89554672013778
C           -4.24108196535758        0.27116298340668       -0.35578338452444
H           -2.77112174106702        0.32319703343519       -1.90067301564259
C           -4.40346632322715       -0.00856546252645        0.99229060446255
C           -5.32289442866211        0.13298192130788       -1.21565080282797
C           -5.62943012976559       -0.43171531288543        1.47457791619468
H           -3.55774011883034        0.08905341225833        1.65568292147864
C           -6.55007955670257       -0.27989496227594       -0.73098997622680
H           -5.19623612147873        0.33679286201370       -2.26920505807183
C           -6.70579625044482       -0.56469351793425        0.61540628964702
H           -5.74174153191638       -0.66291976748760        2.52370711926126
H           -7.38524829407085       -0.38937112285510       -1.40731513965020
H           -7.66246056237874       -0.89661636020569        0.99138038843535
C           -2.87789152177342        2.27803619160138       -0.97160907871771
C           -1.65251010916738        2.72250880747428       -1.59932049329308
H           -3.73826375384256        2.62716709315614       -1.54699400074613
H           -2.93917756802085        2.67802624340617        0.04419203937271
C           -0.61850848371951        3.03461009165460       -2.11460186418431
H            0.27790709587310        3.33003833609501       -2.57230323574720
Cl          -1.55549785785589       -2.44119238260060        1.62035679945845
Cl          -2.22432870327865       -2.16824362950606       -1.38254120417691
O            0.25138241897223       -1.26292616812731       -0.88177029707067
O           -0.04475350350438       -0.32131180615248        1.38603423793549
C            2.27207463527256       -0.45840006356706        0.03288152384050
C            1.65320778331870        0.81328020312132        0.27225875663487
C           -0.05553797346767        1.99600682873761        1.43473074824507
C            1.96020017907311       -2.77225077836224       -0.51728340609282
C            3.27492825090065       -3.05626773589860       -0.27622142938611
C            3.64949144788619       -0.71823090329417        0.32896131505038
C            4.16336662916542       -2.02931071229411        0.13692047898888
C            2.17816501285025        2.05064295883217       -0.21637262566319
C            1.59129328390956        3.26876557236451        0.21300802352334
C            0.48073190686136        3.20842617540943        1.08795249577356
C            4.50043297231383        0.24787450914688        0.89271320205899
C            5.51143462916730       -2.29401675332917        0.40731814555590
C            3.19640035222607        2.09778812247169       -1.18266046749588
C            2.10084319557614        4.48548351250325       -0.26337290692286
H            0.02230974415877        4.11487536163470        1.44719584586908
C           -1.18566256775932        1.89286828015876        2.27443943499015
N            1.50494815519211       -1.49437533815917       -0.41102062750144
N            0.51780967202620        0.84125393053157        1.01765239906675
C            1.01656842917133       -3.74618553213158       -0.90656498111516
H            3.62712157782936       -4.06943443477804       -0.37728603025572
C            6.33635207627017       -1.30892510240956        0.90090171537206
C            5.81753696201442       -0.04325649013395        1.16545445146162
H            4.11907290851405        1.23053087091272        1.11846717659976
H            5.88874424237346       -3.28990163486818        0.23005689714304
H            7.37466246606716       -1.52036463742780        1.10510592756888
H            6.45186292128541        0.71751291508106        1.59430626397490
C            3.66207153009730        3.30444851596816       -1.65119942354972
C            3.12875993677352        4.50344602061277       -1.17665655308063
H            1.65804428988328        5.40552045605780        0.08704938799651
H            3.60966383667083        1.17654809122613       -1.56292363225809
H            4.44181260973466        3.32314437647262       -2.39731507723925
H            3.51174657733651        5.44335764845681       -1.54436347061084
C            0.16499464602680       -4.53072744028802       -1.22319519534898
H           -0.58022656513934       -5.21573042663421       -1.49901807578545
C           -2.13434976854771        1.81792745609695        3.00632372526085
H           -2.96755102387114        1.74940972883991        3.64081484848486
