61
 energy: -107.995980950355 gnorm: 0.000942821174 xtb: 6.5.1 (b24c23e)
Si          -0.59645456859112       -1.88872789856830        0.35150402934742
O           -1.89704680391983       -0.94061030761721        0.58591261384200
C           -3.23705687218076       -1.07803187745459        0.17015985763704
C           -3.58523774568584        0.04780653472374       -0.77019089136686
H           -3.35640900271239       -2.03639630924449       -0.34674673438019
C           -3.22551147607970        1.35289048973844       -0.46112607790901
C           -4.25568657323298       -0.20612201242898       -1.95859477367838
C           -3.52021723775342        2.38819241513898       -1.32923397518146
H           -2.70384410890765        1.55233876806940        0.46249584338761
C           -4.56485769507954        0.83172496448553       -2.82047350341159
H           -4.52634208035222       -1.22104595026794       -2.20967632177601
C           -4.19514237347743        2.12958310551510       -2.51017710475695
H           -3.22236782883065        3.39766507138555       -1.08265124972940
H           -5.08790293012961        0.62521977011955       -3.74285967395611
H           -4.42944049177216        2.93700464709085       -3.18858285157786
C           -4.14762017518985       -1.06632520814636        1.41173734664557
C           -3.84209999130662       -2.20268989035549        2.25443957668976
H           -5.18910764967764       -1.11137873050547        1.08326443024115
H           -3.98576304614192       -0.14013234313599        1.96897635104658
C           -3.53634212952017       -3.15838024261311        2.90629845758088
H           -3.27611177872426       -3.99337610282556        3.48506393299540
Cl          -0.00079516452023       -3.40026133917691        1.59820977175038
Cl          -1.43034141444776       -3.19545901503696       -1.12789507474206
O            0.38380923764539       -1.24859797676674       -0.91468461938006
O            0.34971015454848       -0.82498165861303        1.51389458071256
C            2.02126998823708        0.31714705151324       -0.25645659639630
C            1.00706779008437        1.10257042207340        0.38488538729622
C           -0.62417767976346        1.18484585204797        2.11888761456715
C            2.60425047602832       -1.79048337976674       -1.24035998762904
C            3.92230047211464       -1.43991581599165       -1.32647435058974
C            3.39705711813511        0.71454578495778       -0.29993042591624
C            4.35387107862065       -0.16652457357095       -0.87290540205638
C            0.77875366984578        2.48629483266198        0.10229179327592
C           -0.12559044092956        3.21849844336349        0.91434941637879
C           -0.78756061850998        2.53821655752233        1.96560906598774
C            3.86366578423760        1.90306184471579        0.28747115497866
C            5.70087060788581        0.21166616245705       -0.93014926088618
C            1.35253874793906        3.12383342698063       -1.00930488660850
C           -0.35960427240194        4.57299890120986        0.63789212292930
H           -1.45717685900876        3.07028343442611        2.62200839671680
C           -1.30932524212310        0.44338739065456        3.10504191253647
N            1.68895332449858       -0.90393548141167       -0.76289564905010
N            0.23303955619002        0.49857109329839        1.32504068690307
C            2.11160684956643       -3.04741662095520       -1.64975102786384
H            4.63469447046123       -2.14691489480304       -1.71819246282795
C            6.11782882921343        1.41070122343196       -0.39866266535775
C            5.19574360090970        2.24380590154164        0.23130299012558
H            3.17239257039602        2.55787393402534        0.79271327922611
H            6.40798638067130       -0.46157900797101       -1.39091299279244
H            7.15750475320380        1.69546622779203       -0.44787883619894
H            5.52814886281308        3.16431090950423        0.68651731327310
C            1.09170982134937        4.44936245017795       -1.26866682199392
C            0.24835196367598        5.18285574182047       -0.43431277826428
H           -1.03468751920343        5.12434504913322        1.27536926602638
H            1.99918863396429        2.56291988436101       -1.66595806150995
H            1.53914290766065        4.92356456229305       -2.12867754574656
H            0.06105727861891        6.22526384637682       -0.64286316486600
C            1.63958590155881       -4.10525256882617       -1.96537106013569
H            1.22267113664003       -5.02786818685898       -2.24062272272092
C           -1.88647877434050       -0.20405569399566        3.93479650296708
H           -2.40255842219599       -0.77651860769233        4.64607685620254
