61
 energy: -107.993061409983 gnorm: 0.000854344739 xtb: 6.5.1 (b24c23e)
Si          -1.20009478642253       -0.31799867244101       -1.27819604727428
O           -2.23070451984188       -1.14389783671713       -0.34642330928415
C           -2.73908268761164       -0.90374202974259        0.94460920793315
C           -4.07275009926798       -0.20522179443160        0.86540023665381
H           -2.03843015821044       -0.27540667096784        1.50208813805345
C           -4.87904414956248       -0.33961451318072       -0.25554003033535
C           -4.50324521299925        0.58231137551566        1.92590674366571
C           -6.09914116291547        0.31096292288075       -0.31727302522431
H           -4.53517567899075       -0.94200008340691       -1.08220423718024
C           -5.72614341711599        1.22615893252519        1.86542610545863
H           -3.87193707877646        0.69473709805403        2.79674518161835
C           -6.52600847915936        1.09296616350741        0.74215847160330
H           -6.71719783476525        0.20687833520567       -1.19650562280319
H           -6.05376369930256        1.83813847707020        2.69406032760737
H           -7.47793695646881        1.60119017954918        0.69316652613344
C           -2.86343627745701       -2.26751988409563        1.65169513846501
C           -1.55418215446039       -2.76340934924635        2.01501426563655
H           -3.47776132738683       -2.15661412495774        2.54891326457149
H           -3.34881505512375       -2.96727749368452        0.96770474340966
C           -0.44717739071658       -3.10946868699441        2.30924866932095
H            0.50900284714987       -3.44341369067924        2.58198810296563
Cl          -1.51204691239951        1.52909370610820       -2.15784194580842
Cl          -1.81176299812534       -1.42136416391397       -2.96346611671673
O           -0.52661361904759        0.52840789471837        0.28233165113153
O            0.40929885895395       -0.83711191720859       -1.55813047729633
C            1.71055975051682        1.06649646979176       -0.02966787531781
C            2.01319272963499       -0.32981742233075        0.10179041231852
C            1.39825736470661       -2.58716988083111       -0.42411753309911
C            0.04814526556579        2.76261792294018        0.20857153035196
C            0.97657805527458        3.75910846528066        0.06298459281041
C            2.69580203166453        2.06919093081673       -0.29261562822261
C            2.32225596173514        3.43733409411495       -0.23756018365489
C            3.02209695178071       -0.81765443826317        0.99471054138496
C            3.23224926174257       -2.21880520146756        1.10495241736189
C            2.38394267117178       -3.09301873397880        0.37651807891364
C            4.00243713816340        1.74286760462047       -0.69111914695952
C            3.28507497834651        4.42443217723477       -0.49494616014135
C            3.75806971256995        0.02805000870020        1.84189954440604
C            4.22512393923844       -2.70785282264305        1.96236755794982
H            2.49310030469801       -4.16105006053745        0.47130180963220
C            0.50330126082134       -3.40263210393220       -1.14755138131465
N            0.41954512216182        1.45909491077075        0.12914696149952
N            1.26288973884387       -1.24336388919539       -0.57866494435804
C           -1.30945287381351        3.01367245059560        0.50757108556581
H            0.66688822228102        4.78767732518323        0.14522582902386
C            4.56929707217340        4.07634105598403       -0.83985149860317
C            4.92096092194243        2.73102578571963       -0.95643793846313
H            4.28191864405244        0.70586557668343       -0.79384642662950
H            2.99383103298582        5.46188012339220       -0.42876022152353
H            5.30383503532694        4.84159912997910       -1.03932647162787
H            5.92025315953120        2.46329015530614       -1.26380138006130
C            4.71674387661043       -0.47993042382773        2.68925568119533
C            4.97233408226061       -1.84829320661602        2.73604496216691
H            4.38780180185417       -3.77431139898163        2.01172911370452
H            3.57024531238221        1.08956113622646        1.83306984884107
H            5.27104822567032        0.19147180024600        3.32718442134483
H            5.73692197719230       -2.23311400310132        3.39319935378698
C           -2.46086108241328        3.18085572255913        0.80271774824751
H           -3.47412133414048        3.33116017803720        1.02919606904723
C           -0.28484147873420       -4.05051957430501       -1.78009271628916
H           -0.97543288376137       -4.60944303765539       -2.33800101558055
