61
 energy: -107.996134093571 gnorm: 0.000561026999 xtb: 6.5.1 (b24c23e)
Si          -0.62784351423281       -1.96998809875592        0.29784174258557
O           -1.89814623249453       -0.99370380859665        0.57679275042427
C           -3.23539608283318       -1.04096430415493        0.12785510997289
C           -3.49180502161531        0.18232045095389       -0.71659954995191
H           -3.37731549698775       -1.94241358273158       -0.47808011699926
C           -3.24621634491738        1.44931908476429       -0.20294928174851
C           -3.92296648217276        0.05724616043585       -2.03000078017790
C           -3.41778715641563        2.57311208018566       -0.99048393302668
H           -2.90842439366680        1.55247681611916        0.81732880574932
C           -4.11045290973973        1.18285425668201       -2.81371592936073
H           -4.10147054871028       -0.92637070295385       -2.43852308947983
C           -3.85366201446266        2.44196029762274       -2.29816228361389
H           -3.20930605198087        3.55230773023555       -0.58297619952071
H           -4.44858289422402        1.07564647173229       -3.83404456836991
H           -3.98977540278778        3.31895747824401       -2.91420264813426
C           -4.17035948381719       -1.11145834388754        1.34763374476570
C           -3.88737416409489       -2.31003999717978        2.10836042809219
H           -4.01491344318698       -0.23354534004513        1.97957123978092
H           -5.20513511970295       -1.12278403893624        0.99580290096275
C           -3.59177116128069       -3.31023623844963        2.69428476773638
H           -3.34130661692690       -4.18687859000485        3.21235803855753
Cl          -0.07694047767262       -3.54522352886106        1.48252350149360
Cl          -1.49420031902376       -3.19191365588844       -1.23049179786658
O            0.36819279830382       -1.31175802075509       -0.94498483325517
O            0.34883466106940       -0.97369113132901        1.49826346171540
C            2.00784117792554        0.23322017612325       -0.24349352175715
C            0.99943523482417        0.99381795826120        0.43576809267225
C           -0.60357995706227        1.01447261986718        2.19697503637018
C            2.58745691358678       -1.85144270824221       -1.27878132879948
C            3.90539543532192       -1.49979402636222       -1.35890486430246
C            3.38265338858254        0.63443251468209       -0.28777262071171
C            4.33746621415900       -0.23486181964262       -0.88199867572010
C            0.76224922834154        2.38498377374762        0.20289040548451
C           -0.12290729222189        3.08923825202815        1.05915244875236
C           -0.76212996976557        2.37355109372118        2.10019348644110
C            3.85150670267839        1.81224799234751        0.31898842544797
C            5.68432076575523        0.14413466092412       -0.93636151056572
C            1.30744813538238        3.05773167983900       -0.90238975156898
C           -0.36411532608681        4.45175100443123        0.83193289956630
H           -1.41581667010689        2.88287951018454        2.78997614298373
C           -1.28551051479626        0.23692392915062        3.15736492649749
N            1.67390628977611       -0.97449177360821       -0.78082965964126
N            0.24010369960232        0.35687252693304        1.36605371212522
C            2.09211721608936       -3.09925877334918       -1.71261149894046
H            4.61798505912672       -2.19864710088514       -1.76464530424679
C            6.10366430744310        1.33229364928842       -0.38271682335079
C            5.18354797839596        2.15370747554835        0.26505962926261
H            3.16230824551374        2.45844292069545        0.83785345615358
H            6.38964443426739       -0.52010920854413       -1.41266837996956
H            7.14342060280404        1.61730555188299       -0.42878087916090
H            5.51736466751617        3.06566978830495        0.73615416089005
C            1.03707621482521        4.38953325209766       -1.11465555505641
C            0.21471550892968        5.09534312606496       -0.23632802284373
H           -1.02261470143752        4.98159482814162        1.50414239904596
H            1.93859821655210        2.51841887117305       -1.59153366495246
H            1.46066453282986        4.89103859636927       -1.97125901693662
H            0.02085829529126        6.14325012168033       -0.40810626455872
C            1.61627561174034       -4.14978011067632       -2.04602529773086
H            1.19729518646122       -5.06686547579695       -2.33550135676547
C           -1.86932317630282       -0.44039815382841        3.95798671942601
H           -2.38870978237574       -1.03948216699138        4.64448457612037
