61
 energy: -107.995891817593 gnorm: 0.000340176066 xtb: 6.5.1 (b24c23e)
Si          -0.39017318865703       -1.94322822937985        0.96882327518508
O           -1.77843913982807       -2.25752787579208        0.19328973130709
C           -2.20784712169569       -1.90207153006500       -1.10658392768037
C           -2.67313186157281       -0.46828896634890       -1.10037709957754
H           -1.37251064680398       -2.01737144052053       -1.80385512588368
C           -3.65348336909492       -0.06633945687213       -0.20128118190382
C           -2.10685370059062        0.47256673568102       -1.94944761046158
C           -4.07662586317647        1.25012968223955       -0.16947525648463
H           -4.07070053115523       -0.78741610575071        0.48470611480599
C           -2.52230145208091        1.79245358622172       -1.90987176004698
H           -1.33373292477833        0.16745854997561       -2.63970290823879
C           -3.51368544916030        2.18185198182048       -1.02542619889761
H           -4.84382656840686        1.54891203954258        0.52958865397150
H           -2.06956630435825        2.52013351027369       -2.56801891280105
H           -3.84096068726338        3.21087025171634       -1.00122871893180
C           -3.33855167253210       -2.86378585197993       -1.50795478843835
C           -2.80915577168824       -4.17643656808132       -1.80892211801992
H           -3.85421539302478       -2.46274928550605       -2.38512483257825
H           -4.04571548388022       -2.94200386556433       -0.67983951043659
C           -2.33734599508712       -5.24706595420362       -2.05840130427433
H           -1.94573804056525       -6.19717738997007       -2.26793754239651
Cl          -1.18270246076782       -2.76844295605111        2.72890085223269
Cl           1.32894175561286       -3.09350399482198        0.98636967110794
O            0.21114697258413       -1.05756807668009       -0.59203461904341
O           -0.04985329959109       -0.47781408628410        1.80582225874306
C            1.67762243527852        0.65130037775349       -0.04785192949170
C            0.55280241046183        1.37864752212530        0.46816225051797
C           -1.41397102020928        1.38408541794650        1.83347167477443
C            2.41070688601738       -1.26003950840756       -1.27220551570629
C            3.69461292319972       -0.78635510780211       -1.33348834806818
C            3.01712337455983        1.15090603747462       -0.01858374553407
C            4.04157246147530        0.41602118714247       -0.67106679097083
C            0.26640690585742        2.72148803296686        0.06214051421380
C           -0.84664472727277        3.39751662914300        0.62723651578099
C           -1.67399236230310        2.69309687598068        1.53940125021452
C            3.37107335041157        2.29819799327983        0.71013456739335
C            5.36035733155468        0.89232252483728       -0.63563124441505
C            0.99101477891664        3.36965825457250       -0.95196791417313
C           -1.13205947853016        4.71081307795005        0.23757808114243
H           -2.53528082979911        3.17274012316820        1.97337837324209
C           -2.22810354684694        0.61426990585220        2.69085867508881
N            1.45150319281505       -0.56113816610426       -0.61357934678082
N           -0.31657264346545        0.76575514929083        1.32080693761765
C            1.99476497547603       -2.43453973491461       -1.93686858104587
H            4.44142500153277       -1.34895678360553       -1.86869821120182
C            5.67161621668520        2.04032833411060        0.05342309377291
C            4.67490756028212        2.73393820898527        0.74061637148142
H            2.61098759052083        2.83675933054632        1.25427750548063
H            6.12696566923793        0.33357692889289       -1.15099594503569
H            6.68935873675560        2.39876844349201        0.07893392651805
H            4.93012738693463        3.61619576903101        1.30743481946483
C            0.67607297960344        4.65447577946879       -1.33299011792806
C           -0.37312348551799        5.33913556628695       -0.72454598899934
H           -1.96682650600343        5.21802621445277        0.69750868522271
H            1.80078839170733        2.85416168876085       -1.44334615387207
H            1.24597943621580        5.13167447862870       -2.11575802236158
H           -0.60164760052495        6.35090187005671       -1.02267250766418
C            1.59446863102402       -3.39407531920608       -2.53658410857458
H            1.25867997322691       -4.25233752790869       -3.03741028850007
C           -2.88250290815623       -0.08826441762729        3.41146162336034
H           -3.44923629355512       -0.70961286021023        4.03875675377818
