61
 energy: -107.992710733248 gnorm: 0.000587317796 xtb: 6.5.1 (b24c23e)
Si          -0.54787659262156       -1.58001359240799        0.47657924816390
O           -1.77271760880179       -1.41729712150004       -0.56052200067192
C           -3.14977857395124       -1.67029894766425       -0.46354157259749
C           -3.89811861919967       -0.36114287528111       -0.50447203738744
H           -3.36178737946295       -2.18666856737815        0.48098712455996
C           -3.34906827161930        0.73547122654939       -1.15481516683726
C           -5.13212344213546       -0.23404910576477        0.11833872129603
C           -4.01527826374953        1.94752464159218       -1.16725831364889
H           -2.38845226068396        0.62979599574817       -1.63665142771683
C           -5.80276565933415        0.97576141054506        0.09664135892179
H           -5.56115241681133       -1.08516921848155        0.62748837155938
C           -5.24365479591017        2.07028170619939       -0.54121727426391
H           -3.57458662364330        2.79803941572613       -1.66795936283686
H           -6.76238637001278        1.06800380425660        0.58460161203609
H           -5.76568317111985        3.01604265167261       -0.55031338812461
C           -3.55301600044005       -2.57977339513954       -1.64017539628711
C           -2.88547010385057       -3.85871424175671       -1.52359771858939
H           -4.63697597743158       -2.71844521130287       -1.63402498612090
H           -3.25711794162126       -2.09474297349270       -2.57369326851143
C           -2.30002131165415       -4.89167786798077       -1.37764448947446
H           -1.79665989345923       -5.80425622154803       -1.26088003373207
Cl          -1.66625616807889       -2.24776274715358        2.18815519622494
Cl           0.78690275072113       -3.15107663494960        0.62713417409879
O            0.39799622818600       -0.86233413834516       -0.93552556526969
O           -0.03653921318182       -0.23473115707234        1.42446740523306
C            2.11165302868033        0.48007374001517       -0.12852072537182
C            1.10791698862237        1.44268483188213        0.22934999702793
C           -1.05258685560484        1.82977974392195        1.19065593447616
C            2.58244985078965       -1.53649267972957       -1.31039586929964
C            3.93353923863930       -1.35731685025110       -1.16654923463408
C            3.50561303161635        0.66079587773142        0.12797871080561
C            4.43188208023635       -0.27502715663694       -0.40195913813812
C            1.17164042058675        2.81449269819479       -0.17670609789149
C            0.09467153994240        3.68322800455884        0.14870706920524
C           -1.02507054796632        3.15066537529912        0.83889177438555
C            3.98363758436778        1.68433512656949        0.96317943651983
C            5.80097004576285       -0.10817465338290       -0.14672208608336
C            2.21320265173306        3.32238205076735       -0.97170785000125
C            0.14070629552841        5.02543299764359       -0.24613212268907
H           -1.86804598383752        3.77816579950452        1.07615027091275
C           -2.13192693053233        1.25102350420384        1.89047546399128
N            1.70966149342147       -0.65005682595369       -0.76777324107780
N            0.00241447316998        1.02214983934959        0.90619336859798
C            2.03532969455908       -2.58775465354466       -2.07771053959471
H            4.61130458324640       -2.06370131877590       -1.61642673381490
C            6.24462027132207        0.92660864156513        0.64215858675592
C            5.32983203123682        1.81319256804041        1.21170337964194
H            3.28340835442381        2.36899934742419        1.41592790803701
H            6.49727337424949       -0.81495721475541       -0.57215581708398
H            7.29943355927831        1.04613241150781        0.83744900287914
H            5.68080741825446        2.60268144639973        1.85851008468370
C            2.22774024872073        4.64386452554156       -1.35725731523540
C            1.20194603688747        5.50704860703620       -0.97938286340561
H           -0.67673095805298        5.67429454185264        0.03051499836744
H            3.01155885368441        2.67047900042317       -1.28758606170522
H            3.04141373345250        5.01094589801410       -1.96403976840418
H            1.23089176488589        6.54363526391047       -1.27806659738068
C            1.56548754337781       -3.44489562125589       -2.77398580786361
H            1.14769748123006       -4.21133486734266       -3.35552719045634
C           -3.02364845495121        0.72492482453385        2.49767004124055
H           -3.80016226109390        0.25781034067414        3.02561282257660
