61
 energy: -107.987839699060 gnorm: 0.000732799244 xtb: 6.5.1 (b24c23e)
Si          -1.01515267154044       -0.89246716131837       -0.35512688269798
O           -2.50004439083764       -0.83211578914712        0.33189467530704
C           -3.79878157611014       -0.67186570972016       -0.15826795443844
C           -4.53916372208493        0.39466003900288        0.60755124295189
H           -3.75569930592496       -0.39475145914879       -1.22032851841854
C           -4.11377499862487        0.79649706704336        1.86545325089038
C           -5.67604438264019        0.97425471264746        0.05516856989338
C           -4.81159561314530        1.76973237119209        2.55986109116978
H           -3.22513799580073        0.34814159853534        2.28092374367448
C           -6.37626114193507        1.94217486078614        0.75298574911257
H           -6.00476146942036        0.67064518064720       -0.92915611602443
C           -5.94435336914894        2.34294305878099        2.00743877380135
H           -4.47112687097171        2.08062579193672        3.53680665528748
H           -7.25799177154381        2.38875447426720        0.31577636816961
H           -6.48987585283335        3.10137294174897        2.54991355484180
C           -4.53988623185854       -2.02251523770730       -0.02747306437425
C           -3.89208349673649       -3.02487807093514       -0.84369132513251
H           -5.57983798136528       -1.89886717866591       -0.33834758049284
H           -4.51180957836456       -2.33194757263447        1.02073021665405
C           -3.29689851820061       -3.81479004624318       -1.51664674440479
H           -2.79996828281451       -4.52136399408189       -2.11031763091091
Cl          -1.58218944082436       -0.45022866780324       -2.31209532142648
Cl          -0.51067954065114       -2.43228935129014        0.97773075804243
O           -0.38575402971180        0.48012587477339        0.46589956827437
O            0.61593220795813       -1.11350844961646       -1.20221378144633
C            1.81204902104593        1.07129403486713       -0.17043253324551
C            2.28122159626666       -0.24570762510911        0.16273250541146
C            2.17772675126098       -2.57845262353382       -0.32172898511812
C           -0.04461133031955        2.54945133530697       -0.49804496969880
C            0.77255648227438        3.56424944499069       -0.91217935547842
C            2.70074634687859        2.09213398507171       -0.64137208401580
C            2.17566023416774        3.36612920058847       -0.98795222850761
C            3.36179873028356       -0.48122702379363        1.06855038152716
C            3.87167914977825       -1.79824954503872        1.20942400766596
C            3.27462008055754       -2.83718975392654        0.45622807288821
C            4.06884902188135        1.86079539781180       -0.86592828587955
C            3.03521651656940        4.37605609315119       -1.43529775318367
C            3.88008071330099        0.53241263006743        1.89234249219202
C            4.93130598669322       -2.03594759862811        2.09736549682755
H            3.65211336441546       -3.84405913005283        0.52148390031828
C            1.53386281621104       -3.58126153239827       -1.07803908779107
N            0.47899005664406        1.35719494501399       -0.10778914358204
N            1.70099798542126       -1.31429816489711       -0.43984516268806
C           -1.44617435351031        2.69862639036159       -0.42091249080851
H            0.34037011312434        4.50655123280096       -1.20541590374190
C            4.38269403047324        4.13649462504415       -1.58594522147265
C            4.89049380213410        2.86667030020155       -1.32180876940968
H            4.48370921982296        0.88292097743636       -0.68260182456176
H            2.61894736782772        5.34436213872715       -1.66919715442432
H            5.03974777872312        4.92050641526115       -1.92956841073400
H            5.93855855131759        2.66423561984900       -1.48175121741034
C            4.90673690474656        0.26754177336385        2.76716336358878
C            5.44881931729084       -1.01533689627997        2.85849385085339
H            5.32318783801094       -3.03850634829312        2.17926136494724
H            3.46279543881574        1.52580411062860        1.83692859968704
H            5.29258570047535        1.05729496932106        3.39351869278256
H            6.26247037898369       -1.20618660666763        3.54155184158860
C           -2.63707111805168        2.83260944851176       -0.35472450130367
H           -3.67867061444691        2.94320401788884       -0.29493737741230
C            1.00911185671236       -4.42171464788412       -1.75505454621935
H            0.54769228937690       -5.16741587285220       -2.33058786183969
