61
 energy: -107.988119660466 gnorm: 0.000584013663 xtb: 6.5.1 (b24c23e)
Si          -1.19036354209642        0.12842217057674       -0.41632268249504
O           -2.52959883189552       -0.36737816651501       -1.19420021482490
C           -3.51546924497989       -1.30301882611365       -0.83813969303278
C           -4.43374211651089       -0.73622602899788        0.21556137639043
H           -3.03383842644116       -2.21221737750739       -0.45708766069842
C           -4.70161861820843        0.62514293011241        0.24384174498220
C           -5.02624356716705       -1.56783346478098        1.15548600118166
C           -5.54760337307821        1.14931926520174        1.20449813182911
H           -4.22937128559684        1.27066904983220       -0.48186887467663
C           -5.87485704305260       -1.04262629275272        2.11312908513561
H           -4.80819041898517       -2.62600532669016        1.14397370019209
C           -6.13736674322386        0.31671964368190        2.13977004999609
H           -5.74861403633949        2.21074365763357        1.22122118144315
H           -6.32641710337951       -1.69498709067771        2.84618522518845
H           -6.79613744951316        0.72632935209513        2.89162837124840
C           -4.31863898226292       -1.64252133507809       -2.10833524236226
C           -3.52534723272985       -2.40959783909826       -3.04300880097402
H           -5.20801673535750       -2.21144629920605       -1.82335780559519
H           -4.62893110681234       -0.70670501662972       -2.57901322591803
C           -2.85069309972404       -3.05177891467851       -3.79439930809833
H           -2.26658745142996       -3.59874331661235       -4.47288982412131
Cl          -1.13959829442310        1.73456951751658       -1.81769357724711
Cl          -1.47453720668342       -1.16516205157264        1.30060996578603
O           -0.33345392746080        1.09026043502876        0.78749304593382
O            0.21243107890760       -0.58864268685486       -1.08193018331669
C            1.88770133543796        1.24460807776294        0.10505179360943
C            2.03222045063751       -0.17080450683874        0.33692318581959
C            1.20580505480230       -2.39192411689109       -0.02988353932888
C            0.50732806625363        3.19162678743394        0.27482007681075
C            1.53504800544472        4.01286465685395       -0.10057164642012
C            2.96559730242289        2.05476494016103       -0.36979810713410
C            2.78945735629642        3.46121874115773       -0.46117137653782
C            3.06510380827306       -0.70092668886586        1.17384376687635
C            3.16690261158963       -2.10814388922906        1.34669011564019
C            2.20614750747078       -2.94331073559327        0.72127869823024
C            4.17078964398155        1.49985222851649       -0.83434779512770
C            3.84370254273977        4.26059749676337       -0.92405743093474
C            3.93429909156294        0.12220559001602        1.91119920602934
C            4.18094496431580       -2.63560636524953        2.15645495386912
H            2.23989444761836       -4.01092273389807        0.86147507743072
C            0.20079559448174       -3.15421335517669       -0.66303411513803
N            0.70167186919235        1.85317366932878        0.37246025313279
N            1.16387318850648       -1.05053682290732       -0.23230754559540
C           -0.76802333219672        3.67885956248202        0.63267218864957
H            1.37236949693487        5.07636350100227       -0.15476004473640
C            5.02978687608549        3.69305948250820       -1.32677492048569
C            5.18267649496906        2.30675296726333       -1.29826738543775
H            4.29965048319117        0.42892802773982       -0.82829429199407
H            3.70196893545357        5.32987838432108       -0.96797192166299
H            5.83643517314795        4.31527448003903       -1.68308271566416
H            6.10115985446235        1.86213471479421       -1.64986065395399
C            4.91141147260670       -0.42226266330758        2.71162975872847
C            5.05377455418974       -1.80475786760858        2.82043856488898
H            4.25786713117658       -3.70777831214548        2.25687386301873
H            3.83327110984948        1.19398644322413        1.85027895144537
H            5.56970926499248        0.22933762268429        3.26570683925948
H            5.83295496535021       -2.21911403429653        3.44155410881176
C           -1.84829522664822        4.07897409877549        0.96902485804629
H           -2.79375803245325        4.44020183839493        1.24477834370555
C           -0.66974258983456       -3.76619547244023       -1.21854755381512
H           -1.44104471383195       -4.29579773468823       -1.69417434598010
