61
 energy: -107.992079400780 gnorm: 0.000598932342 xtb: 6.5.1 (b24c23e)
Si          -1.22136134565619       -1.54591646633632        0.50146439455574
O           -2.29951598258716       -1.06398633575183       -0.60581116457368
C           -3.39551749322986       -0.19055362480030       -0.49290772810539
C           -2.94845987309891        1.22568940447537       -0.76882941380930
H           -3.81479361535629       -0.25999226718006        0.51999806903619
C           -1.84447808693428        1.46011138068489       -1.57880022204788
C           -3.63423802685061        2.30498210711724       -0.22707446777474
C           -1.42234049227950        2.75329674040572       -1.83131088286701
H           -1.31381098072764        0.61601856341811       -1.99203314610094
C           -3.21611714226944        3.59788556652939       -0.48650143069822
H           -4.49273157638765        2.12791210349074        0.40406781701528
C           -2.10747016099728        3.82516892883504       -1.28528689440992
H           -0.55634013713982        2.92557426183936       -2.45471473177095
H           -3.75465991253394        4.43139390449299       -0.05977283381234
H           -1.77794704028414        4.83470219014268       -1.48298281102386
C           -4.46121696271959       -0.62429357144804       -1.51614988088642
C           -5.03124207648940       -1.90190951529159       -1.14600687958158
H           -5.24631800955083        0.13531547622825       -1.55770135943138
H           -3.98611944314332       -0.70263859598679       -2.49706893919558
C           -5.48051945424995       -2.95532392348130       -0.80098781062155
H           -5.87208254040197       -3.88312697962486       -0.50868375954731
Cl          -2.60674789499605       -1.76121851613374        2.13680358747370
Cl          -0.53025777297601       -3.47339377241929        0.67497773675740
O           -0.00823014671674       -1.19639232370556       -0.86243598560611
O           -0.30350991865217       -0.47978472685462        1.49951038149047
C            1.99647223568068       -0.39378019373306       -0.02311747079584
C            1.30068695720248        0.80900702965644        0.34192654972815
C           -0.55244300671647        1.81733660064373        1.47525744961769
C            1.89568444821471       -2.49030008122384       -1.15516288869297
C            3.24222723726622       -2.69108330429026       -0.99369347883840
C            3.39053076608185       -0.58881700160745        0.22797119624823
C            4.02209589163163       -1.76012906029749       -0.26650305536398
C            1.75405066869430        2.10740251499658       -0.05637860738118
C            1.04651374256249        3.25773233047813        0.38264389244387
C           -0.11140978876136        3.07715513564677        1.18214028906679
C            4.14018248356216        0.29418978743966        1.02298653268355
C            5.38691907714443       -1.96571256732698       -0.01720214286766
C            2.82520223805506        2.28619965571244       -0.94782163958471
C            1.48086184977022        4.52974876434251       -0.00665845613559
H           -0.66922128164501        3.92847605499062        1.53419619704855
C           -1.70446413063778        1.57412121817862        2.25266765974392
N            1.30171676732576       -1.37939767153671       -0.65025724520828
N            0.14580106728581        0.72681948464387        1.05937909070410
C            1.09263566602585       -3.37425145716021       -1.90768227930926
H            3.69720248354692       -3.57442336890057       -1.41028181482601
C            6.10554936576196       -1.06336131277053        0.73037277139762
C            5.47343805115799        0.06002734646773        1.26442354694069
H            3.66139956965765        1.16095095905444        1.45105149335030
H            5.85859447408504       -2.85107823046809       -0.41591235906262
H            7.15485532124811       -1.22966847683772        0.92045035076860
H            6.03353851070165        0.74819208034823        1.87879666959463
C            3.22168258720160        3.54810600625099       -1.32890657741356
C            2.56355496560118        4.67642108215161       -0.84473562447699
H            0.94347131784373        5.39321190197955        0.35531267976835
H            3.34030147458428        1.42481646191362       -1.34242437188123
H            4.04716377225816        3.66165730472308       -2.01496939561426
H            2.89146518167374        5.66068458030936       -1.14196076505166
C            0.43413937978707       -4.10166833358207       -2.59871111512284
H           -0.15587869772382       -4.75195420094242       -3.17234909380243
C           -2.65921108989518        1.31264728461232        2.93158776448810
H           -3.49759747000225        1.07490966749311        3.51585960337297
