61
 energy: -107.998879181386 gnorm: 0.000890932370 xtb: 6.5.1 (b24c23e)
Si          -1.24330609798122       -1.03865518372598        0.51069791589845
O           -1.92893989635670        0.33426491262015       -0.03261604716881
C           -2.96958890548281        0.53690562586074       -0.95478622669868
C           -4.32056699994915        0.20995286324635       -0.37292851106792
H           -2.79596191802739       -0.09497842284685       -1.83450270934390
C           -4.53556757656191        0.25673832970337        0.99600131037330
C           -5.37135840943645       -0.12559642629852       -1.21669937749961
C           -5.78349344998648       -0.03572073464470        1.51714880367623
H           -3.71278621711192        0.50479523669351        1.64899100545774
C           -6.62038915486654       -0.40884172771166       -0.69561986386180
H           -5.20396440560313       -0.17768548209333       -2.28291119540596
C           -6.82924916869217       -0.36507585659384        0.67279235450240
H           -5.93740461256942       -0.01104266104959        2.58598167950788
H           -7.43134234861499       -0.67361709816330       -1.35834341580684
H           -7.80325325233297       -0.59461641960129        1.07945266082237
C           -2.91179456390317        2.01961255338766       -1.37463238539349
C           -1.64791749192462        2.31118601641505       -2.01557353533869
H           -3.73540994431049        2.22860444783192       -2.06107795446847
H           -3.02330433285235        2.63927298080763       -0.48053843467169
C           -0.58150931583469        2.49633460011390       -2.52659515849601
H            0.34329102244781        2.67840825874139       -2.98712063787478
Cl          -1.73057941422406       -2.01531543119029        2.24566267441149
Cl          -2.28972931424336       -2.40354405501954       -0.76547006084862
O            0.17758172860728       -1.40895592252563       -0.38470702739588
O           -0.19715800202893        0.00163049911383        1.61216277150480
C            2.17359640086936       -0.45463271356007        0.43407615143820
C            1.57421383560563        0.84662114250976        0.36419228654839
C           -0.16220812421202        2.27341661946825        1.15022051846080
C            1.84275354710931       -2.82847049804276        0.35322191579267
C            3.14035684078736       -3.06965617429845        0.70804016551116
C            3.52951329019063       -0.66159442522586        0.84740669698408
C            4.02764568238602       -1.98867713706239        0.94956697910540
C            2.15431764466582        1.94276890205224       -0.34833361412460
C            1.57491014898949        3.23191945764633       -0.22478956336565
C            0.41879543150332        3.37516827752898        0.57837086590190
C            4.36982623406307        0.39137533132660        1.24793417485897
C            5.35663923018818       -2.20447991842807        1.33370927018070
C            3.22469910184563        1.76894335262069       -1.24107450709017
C            2.13875670188049        4.31138081076620       -0.92043819566193
H           -0.03621193672395        4.34313597572730        0.70790895892803
C           -1.33377549296659        2.37254221804353        1.93145741714365
N            1.40619918364268       -1.55187141783083        0.17738614329431
N            0.40414891159520        1.04904488976556        1.02445125088928
C            0.90077161499156       -3.85362272169590        0.12475167143308
H            3.47767678424778       -4.08577852202673        0.82863305378705
C            6.17508723341514       -1.14675238046761        1.65912387174281
C            5.66715029116037        0.15044331849597        1.63869302364769
H            3.99549536359951        1.40230169404865        1.25297682390255
H            5.72400314300348       -3.21861160735967        1.37929352386731
H            7.19887518817328       -1.32109999847356        1.95218641106459
H            6.29406811554971        0.97667587308686        1.93757745492372
C            3.74516512485566        2.84109563440513       -1.92815954082476
C            3.21582455791560        4.12039711472325       -1.75383797117417
H            1.69987728200521        5.29050439571679       -0.80152524267692
H            3.63607933645241        0.78285351514785       -1.39085077646809
H            4.56578270928614        2.68958070131114       -2.61280224420920
H            3.64152115628811        4.95463781969471       -2.29057112159409
C            0.05359798260291       -4.68250212359576       -0.06708271794325
H           -0.69070381108655       -5.40332559681129       -0.23210820509324
C           -2.31561235938825        2.48148357250582        2.61372545716501
H           -3.18005230265821        2.56800171516322        3.20256697880172
