59
 energy: -108.582403501782 gnorm: 0.000687757985 xtb: 6.5.1 (b24c23e)
Si          -1.39333396735839       -0.16664462328726       -1.26679518188541
O           -2.14981273364600       -1.08075810144289       -0.20517092776283
C           -2.80215250418211       -0.81815972035384        1.03470069311638
C           -4.18429173310503       -0.28643643303091        0.76963280522680
H           -2.21021241688080       -0.07737429981580        1.57785951317554
C           -5.03186400011257       -0.96004949668304       -0.10122656160391
C           -4.60694114015644        0.89678487064963        1.36015644827142
C           -6.29435483199992       -0.46175009026414       -0.36742625679993
H           -4.69008474904895       -1.86300619173338       -0.58527766224722
C           -5.87267855289045        1.39019332980037        1.09573850168246
H           -3.93853745864842        1.43886985204917        2.01269467237661
C           -6.71854932423360        0.71102951521052        0.23518069030428
H           -6.94627932184496       -0.98777737283593       -1.04914356290022
H           -6.19336804095868        2.31269048281370        1.55603847729774
H           -7.70442682773550        1.09974602276781        0.02631010210574
C           -2.82019764648468       -2.13785859753109        1.81899964326010
C           -1.48790281900064       -2.47670553720058        2.27103418860459
H           -3.20033230230539       -2.93187218555914        1.17205500171486
H           -3.48294536309169       -2.02876089062573        2.68108441007664
C           -0.37040393508935       -2.71345579844581        2.62758684819575
H            0.59696572606706       -2.93687962237671        2.96670300079356
Cl          -1.74971865443743        1.80815581580013       -1.41244867344553
Cl          -1.94802078116032       -0.93196262396784       -3.05069440129297
O           -0.35210874525539        0.66247631324709        0.90959753813699
O            0.25251344145843       -0.46911906416714       -1.37459305813340
C            1.77653528690391        1.14214905118781        0.21063294861362
C            2.00277303537617       -0.27909850990807        0.19224847989616
C            1.03378037405726       -2.40856729292152       -0.32172967538733
C            0.24533910749284        2.85762139434452        0.77393660098995
C            1.16092658444766        3.84439281520536        0.50054179517476
C            2.74078708928507        2.12212811857923       -0.16659515460391
C            2.43164948006485        3.49911900911069       -0.00524598261909
C            3.04751033444012       -0.92642964207376        0.91553950508745
C            3.07703590646584       -2.34804730282043        0.97380021169497
C            2.01739720039634       -3.07254741616662        0.35429507054092
N            0.54297713079344        1.53849505677022        0.61670798167300
N            1.06396237801283       -1.05723272047504       -0.43847051963141
C           -0.01559087173301       -3.13919741267485       -0.92808960811663
C           -1.03770337881600        3.13847291325151        1.30080199263005
N           -0.82520306743138       -3.79798072864650       -1.39822946979691
N           -2.05530815338422        3.37693824833706        1.76928926458237
H            1.97276987510506       -4.14621883830329        0.43931864394670
H            0.89250615101670        4.87698669267151        0.65476112934858
C            3.38338837239356        4.46749482215531       -0.36912412996607
H            3.14379067856338        5.50964648926552       -0.22095873099286
C            3.96292459043374        1.77170031066267       -0.76434597606209
H            4.18431382562797        0.73051530094812       -0.94146094531439
C            4.01328647508953       -0.21835507335214        1.65131007007303
C            4.09321742177676       -2.99788712443421        1.67483797221505
C            5.05981385333962       -2.27400604539301        2.34571132933486
H            5.84368804135478       -2.78362366659615        2.88384098065795
C            5.00018855588029       -0.88471079817732        2.34613964664274
H            5.73169260057047       -0.31687931275954        2.90079644428961
C            4.58546103265132        4.09265223316191       -0.91377871105309
H            5.31133684784777        4.84045247014622       -1.19427875129347
C            4.86638356135352        2.74043440044046       -1.12872643949988
H            5.79944782080490        2.45568924902044       -1.59026409326179
H            3.98121162121249        0.85874951852171        1.67775571599912
H            4.10683192072258       -4.07745676209646        1.69109115594350
