59
 energy: -108.583879895908 gnorm: 0.000374720776 xtb: 6.5.1 (b24c23e)
Si          -0.47317553059612       -1.95616787766060        1.00617873326440
O           -1.89520981146846       -2.14381473998696        0.27926913239988
C           -2.36937512409663       -1.81807437789579       -1.01762842071204
C           -2.83583148215694       -0.38464885299897       -1.02110749411881
H           -1.55375801447402       -1.94419744759082       -1.73477975463446
C           -3.84896039130374        0.02046084225944       -0.15949149257821
C           -2.23367516255732        0.55613616803402       -1.84625548264067
C           -4.26763182085245        1.33921288185811       -0.14258540206303
H           -4.30131146792852       -0.69714809672683        0.50738768970915
C           -2.64341528386918        1.87813580641330       -1.81993804567537
H           -1.43912069150476        0.24744896479427       -2.50965943702270
C           -3.66632736209234        2.27061085700615       -0.97280950460638
H           -5.06192758352176        1.63863605608672        0.52499319350319
H           -2.16407086184961        2.60398380075774       -2.46144680703472
H           -3.99260314559851        3.30037515227577       -0.96205359031723
C           -3.49989701858556       -2.80038014312078       -1.35887425073256
C           -2.95446946638561       -4.11688779755336       -1.61544137831160
H           -4.03264247089448       -2.43941282726521       -2.24289081160179
H           -4.19315381735169       -2.85288653928884       -0.51694546973001
C           -2.45534198209466       -5.18373699517699       -1.82342815788011
H           -2.03274491924953       -6.12627978334815       -2.00381414748744
Cl          -1.12439635277710       -2.73320585253366        2.80434523669931
Cl           1.19927903795339       -3.14086024234598        0.81757937199040
O            0.14795254951550       -1.01428320952166       -0.67856834501497
O           -0.06007960762864       -0.45866001254745        1.74915124591110
C            1.71416627601394        0.57907433266295       -0.10122230548103
C            0.62663148816679        1.36639023669157        0.40541706973042
C           -1.39901672774379        1.42167805179930        1.66675013292062
C            2.32839532147526       -1.36740737778552       -1.31593200363331
C            3.64675316778073       -0.99579828151535       -1.35863208279676
C            3.08697225236415        0.97631974769502       -0.04151915708635
C            4.06808253584348        0.17456639642333       -0.68234148064139
C            0.40647445344634        2.72448296019492        0.00456994745206
C           -0.72013073420890        3.42744131318673        0.50831601823609
C           -1.62324480306592        2.73429866286651        1.35983443465376
N            1.40339607312376       -0.60597625105220       -0.68059828033976
N           -0.29381110915007        0.77324757549316        1.22094952144316
C           -2.31055862043595        0.71872530370890        2.49277780434296
C            1.84602741150432       -2.50161973640500       -2.01642801218133
N           -3.08813730160896        0.22114561822276        3.16862078529505
N            1.47599374845130       -3.37201644211498       -2.66097520628174
H           -2.50080685243986        3.22906548084551        1.74124665890771
H            4.35788286373660       -1.61111998840339       -1.88469902893608
C            5.41764459039071        0.55210413474568       -0.61781823837772
H            6.15088590387088       -0.05630403034677       -1.12486870715294
C            3.50860171716968        2.08703058090461        0.70629448905639
H            2.77875638777150        2.67418990610603        1.24154218786534
C            1.21397575305977        3.36804230571352       -0.94645200683645
C           -0.94723756354697        4.75094942536717        0.12251646970580
C           -0.10791326874601        5.37374653988424       -0.77721545152438
H           -0.28937118427224        6.39549625906899       -1.07230588104604
C            0.96018276078067        4.66932740454498       -1.32377889672595
H            1.59626194176024        5.14183908633186       -2.05659042321622
C            5.79746755006642        1.66713001420746        0.09045578655597
H            6.83762567710925        1.95003140867521        0.13943001698358
C            4.84058180341327        2.42467675553019        0.76719870729835
H            5.14848043720429        3.27947232143794        1.34940456343090
H            2.04062854333511        2.83980134115117       -1.39356443318599
H           -1.79757371123015        5.27305021022078        0.53385039020499
