59
 energy: -108.573676749023 gnorm: 0.000710124526 xtb: 6.5.1 (b24c23e)
Si          -1.07784708016005        0.61824002632440       -0.95099292269175
O           -2.62098559356778        0.95969280009435       -0.73650735836448
C           -3.72835466882961        0.13595007524842       -0.38022501633387
C           -3.50034735531117       -0.51300850773306        0.95843600310507
H           -3.83262009897511       -0.63503670366347       -1.15469627596495
C           -3.15969782463835        0.26607449197562        2.05693577911138
C           -3.62064496795042       -1.88782838056285        1.10602542400497
C           -2.95537020660701       -0.32445925741554        3.29041139992268
H           -3.04293229902825        1.33304267315361        1.94199697317755
C           -3.42594873197722       -2.47507777839104        2.34351818517394
H           -3.87186458374321       -2.49897390639084        0.25097134081228
C           -3.09833563826110       -1.69380868789460        3.43817541515533
H           -2.69142657982251        0.28895769762419        4.13904666585356
H           -3.52994428467582       -3.54435266721849        2.45122143213257
H           -2.95561374605155       -2.15193456138785        4.40605580900901
C           -4.97701999934417        1.02901451508288       -0.37006871088528
C           -5.30681388183811        1.47429510840961       -1.70775682039126
H           -4.78201291601203        1.89624087402828        0.26456955468108
H           -5.81336856395103        0.46252157014974        0.04799098608400
C           -5.55286312934481        1.81614796255849       -2.82718723060001
H           -5.78355826894775        2.13097033538804       -3.80063394514865
Cl          -0.28422429164745        2.17327426429839       -1.90876060115264
Cl          -0.84840948695327       -1.16193071535906       -1.85029704242398
O           -0.37512978716560        0.50054716212879        0.55256118585077
O            3.14789883641317       -0.14683806246788       -1.79536235798346
C            2.00807515476321        0.48188102494427        0.54018910478344
C            1.93214213993553       -0.85592828093964        0.01417070152473
C            2.44523053127984       -2.31243424738242       -1.77499677337290
C            0.77206484832847        2.40094324422816        1.30420943115613
C            1.89855849699867        3.15961962201181        1.37226969409617
C            3.20961673184289        1.22549843817526        0.64894087194013
C            3.16528096509248        2.59601767041406        1.03528000119762
C            1.21023377890762       -1.89938435344371        0.66268052038404
C            1.07650935269202       -3.15876580965704        0.02020746982698
C            1.71880832182849       -3.33731971325828       -1.21938905473173
N            0.82560052462536        1.08202106283346        0.93052322199988
N            2.53914734766175       -1.07502337746361       -1.19155105575877
C            3.10601951841749       -2.48428522860081       -3.01362077401831
C           -0.49987031638976        2.91723030408352        1.63508446247131
N            3.63890475143691       -2.68136749439488       -4.00826304033188
N           -1.52863995561372        3.34072762172947        1.91157885201981
H            1.65366731709986       -4.27998796959560       -1.73943790498072
H            1.83264529779352        4.18612019308683        1.69659082382738
C            4.34040326806387        3.34152319920704        1.09878598146636
H            4.28514254010812        4.38401898822372        1.37541338836904
C            4.47026905527032        0.63840335459614        0.43475674053139
H            4.54659194765022       -0.41647586861567        0.23047583482429
C            0.66862250920084       -1.74929028551770        1.95132664037825
C            0.34031298960832       -4.18332038885593        0.64027469823946
C           -0.21252425009285       -3.98929585196334        1.87865186308111
H           -0.77455010823637       -4.77821777088244        2.35476618347563
C           -0.02524314460909       -2.77396155841645        2.54375503981941
H           -0.42646100426634       -2.64159540119082        3.53625197578458
C            5.55790946902086        2.75517054784620        0.81212917707796
H            6.46360917644311        3.34029112842259        0.85001338581180
C            5.61581292017259        1.39904485845508        0.50299637199805
H            6.57249258902049        0.93363901877891        0.32055647942004
H            0.81345577753268       -0.82644166155855        2.49086179363399
H            0.22921660680283       -5.12457534327801        0.12302502192398
