59
 energy: -108.586796077596 gnorm: 0.000623568642 xtb: 6.5.1 (b24c23e)
Si          -1.35025073635022       -0.96445716507955        0.46369275138674
O           -1.94716552735170        0.46038590977669       -0.05080287335311
C           -3.06326954233749        0.69746265696167       -0.88791531067593
C           -4.34825062058792        0.26845456598396       -0.23026285365132
H           -2.92344035805258        0.13212823239699       -1.81670706184688
C           -4.55813355894007        0.51216923921821        1.11991916273467
C           -5.32824144535013       -0.38056255393472       -0.96827653687090
C           -5.73094899763721        0.10070747108342        1.72717469924762
H           -3.79591747659843        1.01242546730697        1.69843291338321
C           -6.50364640380970       -0.78355665023995       -0.36089179940248
H           -5.16135915511928       -0.58388326784984       -2.01575869934023
C           -6.70583416290544       -0.54670597131638        0.98826444295139
H           -5.87958543777019        0.28501230637310        2.78052309581050
H           -7.25851838372705       -1.29387874493936       -0.94066331301421
H           -7.61941452924637       -0.87194853255373        1.46386512078857
C           -3.08871786699682        2.20323445659493       -1.20653361842671
C           -1.87543718255802        2.60110962944388       -1.88616502792594
H           -3.19343842217853        2.76296937385337       -0.27373411703946
H           -3.95346385379465        2.41050311634188       -1.84165743206188
C           -0.84943481680830        2.88354875505126       -2.43425779550979
H            0.03778794135430        3.14560494255076       -2.92907837770300
Cl          -1.83703033290931       -1.90997736134382        2.20061989539745
Cl          -2.38219683542277       -2.24739338610946       -0.85831608894524
O            0.10800452697702       -1.39201652280413       -0.36866201726510
O           -0.21802434598982        0.07745740831968        1.59129075973259
C            2.13121446583219       -0.51060630527762        0.47469841749365
C            1.59575677680479        0.81344647203096        0.35159181892399
C           -0.10295700130030        2.31710298860874        1.04419688085910
C            1.68363604317441       -2.85636973145271        0.46512601992986
C            2.94898007943655       -3.15885152829657        0.88417708396807
C            3.46128503879051       -0.77124836412511        0.94439044263543
C            3.88377289745410       -2.11591214421311        1.12577991589535
C            2.23129106200482        1.86971936412616       -0.37716568528883
C            1.69461610532594        3.18166111433777       -0.30590208860568
C            0.51966269818752        3.38794585672143        0.45750746738870
N            1.30826331155944       -1.57221439129893        0.23592662503064
N            0.42111154225032        1.07109284692776        0.97883908433534
C           -1.29768529430816        2.47989785484707        1.78414024860958
C            0.74345946974280       -3.88785375994057        0.21475497442207
N           -2.24818002310232        2.67167563554434        2.39273326847760
N            0.04399071574826       -4.77247431308667        0.02423183873398
H            0.08870134580818        4.37177353154664        0.54326447423321
H            3.22467837160810       -4.18722944003353        1.05089704923866
C            5.17846328763654       -2.38618756125014        1.58051026753495
H            5.48544843441400       -3.41503261305423        1.69038189699036
C            4.34260659510085        0.25265855143690        1.32692806899447
H            4.02759880621068        1.28171455950744        1.26696094259431
C            3.31829067176235        1.63374068345614       -1.23279195915646
C            2.31315494420472        4.22109792063755       -1.01526883087401
C            3.40509953022073        3.96865738853769       -1.81301491028665
H            3.87383056933506        4.77189208662843       -2.36054570691891
C            3.89357865271609        2.66787744554633       -1.93599907454625
H            4.72618304936661        2.46840497513883       -2.59285096696153
C            6.04039554057525       -1.35819179504966        1.89491973126318
H            7.03788254464817       -1.57310991735564        2.24500049251925
C            5.60798887174981       -0.03935943247008        1.78707418556202
H            6.26677027433691        0.76628493645182        2.07282389910730
H            3.69976818806410        0.63054668098632       -1.34222835660116
H            1.90568895875257        5.21748602883077       -0.93543743393501
