59
 energy: -108.579361622675 gnorm: 0.000659156652 xtb: 6.5.1 (b24c23e)
Si          -1.07626554887150       -0.46214727205555       -0.55640435271386
O           -2.57367846464959       -0.13382695971627       -0.00207792106877
C           -3.76604556730868       -0.86481268162890       -0.10780863625523
C           -4.87463419751887       -0.14113961670867        0.61305717653416
H           -3.61139307153713       -1.85707879483359        0.34318338430673
C           -4.86412233938692        1.24200062272957        0.72052164290956
C           -5.94458152129061       -0.85961474190486        1.13182120303923
C           -5.91007091384393        1.89707085116438        1.34686353374657
H           -4.02653037950762        1.79584790597699        0.32602290647075
C           -6.99220963024093       -0.20183151253864        1.75047037571136
H           -5.95334501036322       -1.93798979316334        1.05160096854394
C           -6.97669159960632        1.17892533094723        1.85931550746172
H           -5.89076751871042        2.97351024358749        1.43103828177210
H           -7.82059450145405       -0.76832913308891        2.15085499867554
H           -7.79432760668675        1.69143260390289        2.34525861129567
C           -4.16126102218033       -1.05651003538784       -1.58828202628140
C           -3.22737336508673       -1.93826690268494       -2.25242169945717
H           -4.15622355208731       -0.07758027184211       -2.07458205135848
H           -5.16933053836703       -1.47532753578349       -1.63528271284240
C           -2.41129882896467       -2.66742985050931       -2.73874517927071
H           -1.70088521799101       -3.30885506188281       -3.16983779281504
Cl          -1.23176560603305        0.73943787797563       -2.26293378638660
Cl          -0.96413701033168       -2.37933259291272        0.33722421993257
O           -0.25444002403470        0.48025969148025        0.61979662306151
O            0.59308468001516       -0.82807534605605       -1.36227262287009
C            1.97823459237615        0.95379216576234        0.06306172417492
C            2.28045774082161       -0.44771133685843        0.17721670955774
C            1.83235882100507       -2.63940414954557       -0.63413674059950
C            0.28490819864645        2.63631619520137       -0.01678067539688
C            1.19023606564287        3.61546504234142       -0.31654613715839
C            2.96444927859212        1.93539095700564       -0.27520598604040
C            2.56679180352424        3.28910560699595       -0.44987435920366
C            3.29486500316365       -0.97395646983150        1.03651625852301
C            3.58429798180971       -2.36406066992129        0.99813702467590
C            2.83987848796111       -3.18579561039900        0.11488427489290
N            0.68494872790440        1.35990335717692        0.20063188062103
N            1.56786599655494       -1.31142535392126       -0.59011085159270
C            1.08166742921120       -3.42088211927495       -1.54790051877207
C           -1.08952932389422        2.94218626919193        0.14071832626029
N            0.55356486679934       -4.08071045278534       -2.31950951402350
N           -2.17459646164793        3.27231604433774        0.29184581831473
H            3.04281510537754       -4.24208532389073        0.04909134008569
H            0.85249328367544        4.62622392740232       -0.47562833622520
C            3.51783141161320        4.25672036176656       -0.78995364369870
H            3.19859715951630        5.28192939848622       -0.89883027450063
C            4.30244963557139        1.60074625184732       -0.54112001537028
H            4.61940222388252        0.57233839743048       -0.47798541884532
C            3.95953624624435       -0.17593515828975        1.98189583696841
C            4.57557794525928       -2.88724671632353        1.83974604673785
C            5.24179647219253       -2.07270860988496        2.72553285366997
H            6.00320511483912       -2.48203478382973        3.37130073860053
C            4.91774969306637       -0.71839910139365        2.80677216736568
H            5.41862036835650       -0.09043065737754        3.52737948827471
C            4.83412906184085        3.90528907156142       -0.99493061843237
H            5.56238407951784        4.65645751597893       -1.25796014314235
C            5.21666401012443        2.57057063616271       -0.88839968090488
H            6.23933859669817        2.28850788312845       -1.08651267201782
H            3.71087523442231        0.87077053421083        2.06119373767087
H            4.79839650539438       -3.94191812750345        1.78582070738449
