59
 energy: -108.502458055241 gnorm: 0.000619367118 xtb: 6.5.1 (b24c23e)
Si          -1.06642648397253       -0.77953093021337       -0.65486097267744
O           -2.90631221485572       -0.05920835428323        0.18507332414332
C           -4.01267281899271       -0.33849243865094       -0.24375238024076
C           -5.24288961157658        0.23789632743938        0.26187854852114
H           -4.11403584224760       -1.06103496394650       -1.06583116874843
C           -5.20660369977925        1.26689294287230        1.20951247559604
C           -6.47313890378370       -0.23397290267436       -0.20685359938007
C           -6.38655082229427        1.80771165579889        1.67974446866798
H           -4.24627052994684        1.63377905018651        1.53950905581726
C           -7.64663952949219        0.30939409203183        0.27580244425909
H           -6.49289256902965       -1.02478082011057       -0.94186249344538
C           -7.60404256567730        1.32814512095254        1.21814882960448
H           -6.36141922313815        2.60589043626184        2.40598412311059
H           -8.59833765823339       -0.05484441640109       -0.08107407393753
H           -8.52551780384399        1.75163694564544        1.59003850573287
C            0.33955128626541       -2.63421071740420        2.57086942169175
C           -0.46805433387521       -2.48129994220563        1.56715477391746
H            0.10845420346666       -2.22462918112616        3.54051435040993
H            1.25718889320699       -3.19767780039991        2.49585965991608
C           -1.24441683539302       -2.26744654871001        0.55415855948428
H           -2.03372287078129       -2.97560258075322        0.34358817094753
Cl          -1.23434030054375        1.11400427501509       -1.73492598994816
Cl          -2.08832560584510       -1.79838688662699       -2.23308620114920
O           -0.27256380786898        0.08926103522753        0.73107381720085
O            0.54187261135974       -1.07340147563850       -1.35607494876171
C            1.86425744774763        0.77679161721569        0.15285045202855
C            2.25290349165092       -0.60791566733281        0.16991979089573
C            1.75726568808620       -2.83583005370453       -0.51038255153354
C            0.12413469510690        2.35339252061567        0.52349394602084
C            0.95414156256552        3.41605929474653        0.28326509048628
C            2.75887677799355        1.84256407798701       -0.17870720323736
C            2.29833238895993        3.18398243704643       -0.10185394591186
C            3.35137358268107       -1.09326822092393        0.94913070477571
C            3.65873059802980       -2.48051593527674        0.93178483156768
C            2.82259742303478       -3.34804798251156        0.18025250329134
N            0.58042593515837        1.07938316571580        0.46742029731880
N            1.51546097331714       -1.50389498092611       -0.54197250566035
C            0.90413218411515       -3.69101909501490       -1.25059595266701
C           -1.22091981038452        2.54962247572608        0.91951815195593
N            0.27148421822880       -4.44438820724726       -1.83479591271099
N           -2.27603633229595        2.78022396284893        1.29915262834635
H            3.00403181597435       -4.41048893341017        0.17246440965378
H            0.57148402197290        4.42106460306297        0.35258874466440
C            3.16588154872269        4.23397594293241       -0.43153639947112
H            2.80643080661878        5.24855247156443       -0.35035544597197
C            4.05481794851998        1.60752820124144       -0.66596895195651
H            4.40203141961051        0.59321980018141       -0.78495128048757
C            4.08987033705343       -0.26363952993621        1.80800557394716
C            4.73350854192366       -2.96588059730492        1.68473826197568
C            5.47453178001491       -2.11653604164481        2.47720266987836
H            6.30259318788577       -2.49745696222936        3.05459764126269
C            5.13385169564463       -0.76860578648537        2.55178468277370
H            5.68870004575974       -0.11080514800700        3.20312194666451
C            4.44574819839671        3.97450331754002       -0.86414733765434
H            5.10788601540222        4.78766215527734       -1.11881154958921
C            4.88127732179580        2.65657129172901       -0.99749337640668
H            5.87384136210468        2.45585957253728       -1.37068998187480
H            3.83622011770532        0.78121337723333        1.88873486602269
H            4.96473705112998       -4.01948707669277        1.64018249588852
