59
 energy: -108.584010096225 gnorm: 0.000560581074 xtb: 6.5.1 (b24c23e)
Si           0.08590337463611       -1.67279876656809        1.36734786080017
O           -0.54874194966542       -1.30667731923687       -0.05036968856516
C           -1.55080208832635       -1.88949925142328       -0.89316868920469
C           -2.78484043250993       -1.03442349784274       -0.75797961014518
H           -1.75564583957524       -2.90297917323043       -0.52801273856502
C           -2.80526410542666        0.26151482645425       -1.26020911059111
C           -3.88082617498177       -1.51063491425564       -0.04956397510769
C           -3.92223456797415        1.05739907372321       -1.07493041840623
H           -1.94590107233121        0.65623749358087       -1.78070418910503
C           -4.99237055092743       -0.70870541975421        0.13999789547711
H           -3.86254876809657       -2.51195214167025        0.35661744157132
C           -5.01596069970122        0.57584531142649       -0.37606752491620
H           -3.93307060960262        2.05918545198136       -1.47794804454610
H           -5.83922335841229       -1.08787508617034        0.69226216910975
H           -5.88561056635879        1.20008678082474       -0.23174183723910
C           -0.98790308887240       -1.95624735035606       -2.31611274457022
C            0.20037122729901       -2.78254205578713       -2.33608700834665
H           -0.72641942194959       -0.94899315060170       -2.65252028643747
H           -1.74847647602327       -2.36589607650138       -2.98376859982434
C            1.19770602555956       -3.43977903613301       -2.26547630710055
H            2.06783905376973       -4.02485338352862       -2.25067533819072
Cl          -1.12762289257451       -2.79026193286743        2.50080620524860
Cl           1.91440208652348       -2.45914369862259        1.24729445177841
O            0.22871099131970        0.95258106056594       -2.13785637732528
O            0.32574718886692       -0.18710016128425        2.08187604324350
C            1.37532376591554        1.01909240580542       -0.14698082144765
C            0.20131508793540        1.57221481336047        0.47526612531808
C           -1.48803814368477        1.30018550032807        2.15961163167928
C            2.31946302398344        0.06237176299477       -2.09001447579481
C            3.46399593274352       -0.30191290210516       -1.42413740026969
C            2.57469468069404        0.74253169579350        0.57142545588593
C            3.63046486874121        0.04190580005221       -0.06924072681247
C           -0.52882132201030        2.66577007414366       -0.06181706129682
C           -1.78388304728367        3.03103622964426        0.50013787833068
C           -2.24825926110184        2.29976251460944        1.63363204817202
N            1.28157735538263        0.70696595624729       -1.47258870986601
N           -0.27228590432631        0.97560152267144        1.62615940124072
C           -1.92787171435697        0.57493696586682        3.29007169389629
C            2.14300778253603       -0.24389946044015       -3.45953158437822
N           -2.31660006582814        0.01011784801313        4.20776411859081
N            2.04186812567880       -0.48640378730111       -4.57453655629738
H           -3.19462059616408        2.54505850332248        2.08795691824131
H            4.23556149352696       -0.83781388061398       -1.95349508861635
C            4.79783231562594       -0.26663202071856        0.64981925932025
H            5.57930625508599       -0.82202405071268        0.15372662979874
C            2.77131049611697        1.18629762146422        1.89027843482420
H            2.01211812717733        1.78229726844586        2.37308140728282
C           -0.02275390840439        3.44551835280997       -1.11678548060606
C           -2.51392918831868        4.08359953591284       -0.04611334928382
C           -2.02042964649473        4.79215357990749       -1.12586799356475
H           -2.59541135261669        5.59946539993427       -1.55258854736730
C           -0.76778981117983        4.47874555636661       -1.64283092275143
H           -0.36766724141501        5.05694343146739       -2.46177549236249
C            4.93721204746905        0.13507896272801        1.95272411986400
H            5.83217276538114       -0.10755616351179        2.50490325592222
C            3.92751895899168        0.88298624889227        2.56561182862836
H            4.06087316089978        1.22884360025765        3.57936196963882
H            0.96129323850162        3.24898666019873       -1.50911127650834
H           -3.47036856389976        4.33700987145683        0.38683273158923
