59
 energy: -108.586796345007 gnorm: 0.000383412918 xtb: 6.5.1 (b24c23e)
Si          -1.22605391634267       -1.04178148284184        0.03190301587194
O           -1.85452361106791        0.45232234838462       -0.12284279308334
C           -2.97295846315574        0.86687467809774       -0.88391559317518
C           -4.25666694623635        0.30174694124042       -0.33633239362942
H           -2.83541483250099        0.52234847630191       -1.91546519704526
C           -4.47059693826963        0.24756075344162        1.03392414089368
C           -5.23294003415226       -0.17402976792777       -1.20051836748009
C           -5.64584494089165       -0.28408109358508        1.53368038599887
H           -3.71001380274749        0.60937869758282        1.70967700701574
C           -6.41010276314894       -0.69833265832376       -0.69873374850674
H           -5.06150093020844       -0.14711247982088       -2.26647568846759
C           -6.61791730753052       -0.75609430025481        0.66901478168791
H           -5.79867584211161       -0.33086569625781        2.60145687728500
H           -7.16215754059871       -1.07236358015468       -1.37752367823323
H           -7.53384963117592       -1.17431428991460        1.05977087439748
C           -2.99849203774332        2.40591408405456       -0.86047552844130
C           -1.80315816199766        2.94407194206111       -1.47210309509746
H           -3.07248443161211        2.74437183244900        0.17612945064001
H           -3.87979474316656        2.74899202359413       -1.40765321471678
C           -0.79168576449562        3.33385097794450       -1.98000458907678
H            0.07981899056086        3.69905512282881       -2.43596120393167
Cl          -1.66055883025574       -2.36140324496196        1.51903674811954
Cl          -2.27753160116566       -2.00602252796814       -1.52313666636598
O            0.20829176658080       -1.23467311421039       -0.91758946930111
O           -0.06819686666185       -0.26570802894990        1.33837656325746
C            2.24547619157753       -0.48719865281884        0.02094954793773
C            1.66752850951257        0.80625735082851        0.23750688315105
C           -0.03334028700138        2.04066943310033        1.33826771482446
C            1.86235424999332       -2.78618494347011       -0.50362857826152
C            3.15854692436494       -3.12502214237791       -0.23439571039697
C            3.60922330491492       -0.79474865513325        0.34434418746221
C            4.07935415843740       -2.12614430656824        0.18336321927523
C            2.23432259468500        2.02854431645365       -0.24935264973301
C            1.67068562178834        3.26551966498751        0.15785300599440
C            0.53258047503406        3.24208431777433        1.00015338312557
N            1.44047067560781       -1.49883373429867       -0.41619980543773
N            0.51943715880506        0.86541798663655        0.95739053161714
C           -1.19980295441938        1.97969681465340        2.13652283060935
C            0.93427366848834       -3.77057873916830       -0.92830796059886
N           -2.13228831721896        1.99093244696617        2.80054392664669
N            0.24424300848766       -4.61532856599758       -1.27221237873871
H            0.08178006291628        4.16128224519360        1.33601057965739
H            3.47160232489327       -4.15255837752079       -0.32018323323774
C            5.40954049010430       -2.43881634487268        0.48136087808707
H            5.75100168249606       -3.45122604308398        0.32884223136398
C            4.48627377338707        0.14841695162172        0.90341769294207
H            4.14020278158378        1.14870562842249        1.10653625291356
C            3.27519092904324        2.04221139192812       -1.19055828583298
C            2.22255284736683        4.46561862469957       -0.31293742422535
C            3.27253968486728        4.44970485770619       -1.20130335768891
H            3.68915263263893        5.37638171548112       -1.56513499909918
C            3.78390099332890        3.23377890222093       -1.65535495199027
H            4.58129342618600        3.22617689608161       -2.38239011451180
C            6.26375070908345       -1.47528513570337        0.97136038726477
H            7.28942425280971       -1.72193709961327        1.19677701346035
C            5.78833163086805       -0.18764255206307        1.20323505055963
H            6.44306070423868        0.55746825504280        1.62827439817518
H            3.67317717263784        1.10832331418317       -1.55560013425135
H            1.79498409859076        5.39876956588746        0.02089025032324
