59
 energy: -108.582155738163 gnorm: 0.000642972889 xtb: 6.5.1 (b24c23e)
Si          -0.06850298827191       -1.94243225639315        0.91997999403571
O           -1.32956369121494       -1.25222753839896        0.22855783095258
C           -1.87218799251607       -1.04184085937162       -1.07249526680667
C           -2.74047704794027        0.18798062279182       -1.00527770805145
H           -1.04693872079476       -0.87077295209958       -1.77197234704457
C           -3.69912351458927        0.30753061962523       -0.00690209433759
C           -2.58810333069128        1.20475867424984       -1.93752274520729
C           -4.51277044420297        1.42498614416567        0.04525118549037
H           -3.79929261890226       -0.47105049967576        0.73588924388017
C           -3.40971183299855        2.31691726968694       -1.88669182317920
H           -1.81286608903450        1.12892602869663       -2.68335913403312
C           -4.37620405818431        2.42613165432770       -0.90123331964281
H           -5.25810322333316        1.50984619517487        0.82272935896663
H           -3.29050161320015        3.10310103043593       -2.61677849125711
H           -5.01918109249860        3.29338225731003       -0.86717233051219
C           -2.68605631241381       -2.26775145888144       -1.51033779621107
C           -1.85245271782002       -3.44686575617468       -1.60106506172833
H           -3.13262197061492       -2.05288440343485       -2.48410606895989
H           -3.48565847623009       -2.44465147789011       -0.78580840940887
C           -1.13366689401612       -4.40286585733334       -1.63554676124758
H           -0.51993938121758       -5.25153589157576       -1.68964160132953
Cl          -0.60796267116847       -3.39941429690861        2.16023611683132
Cl           1.39698389003228       -2.53045788010046       -0.31489931866000
O            0.53538600965308        0.79658825050361       -2.01164945113422
O            0.52888697658521       -0.72535666083533        1.90104021521074
C            1.73778927180128        0.74068347106989       -0.06016971943957
C            0.58578087098409        1.28055906330551        0.61927514714938
C           -1.04560704854133        0.95494377587625        2.34932452215883
C            2.67019353127613        0.01413025045248       -2.10760121826501
C            3.82837544215410       -0.39991544328180       -1.49809100620043
C            2.92698343724505        0.35409915758571        0.62304880854617
C            3.98467365625694       -0.25112969994666       -0.10710344493278
C           -0.08662438458622        2.46014456140255        0.21466364462811
C           -1.26722049965146        2.87183777656481        0.89583892378944
C           -1.72640199731438        2.07408113929348        1.98464342863187
N            1.62172896565004        0.54545296723949       -1.40423490043960
N            0.11694186337047        0.59149337220363        1.72176854139354
C           -1.51228061155143        0.12463679082890        3.39292080534989
C            2.48019536900145       -0.13647263049252       -3.50074309271774
N           -1.92852627150277       -0.53069164469247        4.23571686973726
N            2.36487517458742       -0.25815799680722       -4.63395986818344
H           -2.61721345574414        2.35653782570625        2.52245774627941
H            4.61178703485710       -0.84009512804286       -2.09442373188055
C            5.14936660893090       -0.66240563158959        0.56400651073758
H            5.93187917453370       -1.14096771962653       -0.00550712543025
C            3.11725670620993        0.59387558931176        1.99523672982906
H            2.35598084194098        1.10776725867846        2.56074856381602
C            0.40738854397163        3.28912045806524       -0.80975691143921
C           -1.93564280482475        4.02796556478895        0.50220722196191
C           -1.45638311651916        4.79242689971946       -0.54337292580293
H           -1.98220922177213        5.68344124141689       -0.84946253166126
C           -0.27757522715347        4.42284318844223       -1.18411838423891
H            0.11449682517396        5.03995412009109       -1.97845366858744
C            5.28365106142828       -0.45683059000403        1.91197169083766
H            6.17604058359978       -0.77855211105694        2.42673228508290
C            4.26908502827577        0.19128434716200        2.62358680425418
H            4.39566252564792        0.37947142751670        3.67887198235062
H            1.33757410066671        3.05011219467616       -1.29741049129516
H           -2.83301317281857        4.31711919625053        1.02809957736799
