59
 energy: -108.580703563276 gnorm: 0.000291307665 xtb: 6.5.1 (b24c23e)
Si          -0.56719921297175       -1.76120847597579        0.17895477071978
O           -1.91767181143388       -0.86686570065312        0.31803708616123
C           -3.25749464855963       -1.21162164301799        0.04001296860996
C           -3.98988144535735       -0.05301700122550       -0.58918849436442
H           -3.26431164128642       -2.05634206671925       -0.66131766507923
C           -3.41819633393217        1.20405022282964       -0.70861520966020
C           -5.27984685549453       -0.25015326638681       -1.07222479717130
C           -4.12358439667532        2.25113961736606       -1.27641911997625
H           -2.40715683371311        1.35907058106199       -0.36837542681594
C           -5.98622659538184        0.79458665335984       -1.63706258225320
H           -5.72656464841961       -1.23217412137594       -1.01585628209543
C           -5.41269874113803        2.05201813105500       -1.73539711103184
H           -3.66052437617516        3.22420473895263       -1.36191551650669
H           -6.98697886049710        0.62701800345388       -2.00709814704184
H           -5.96573944135710        2.86811220920022       -2.17632230335719
C           -3.94721267436509       -1.65474575981499        1.34702009212093
C           -3.37505088322670       -2.89370925837576        1.82685522783549
H           -5.01469803786538       -1.78964923080237        1.16134524813028
H           -3.81275704873094       -0.87695371223636        2.10347818642524
C           -2.86984852796561       -3.91690167100347        2.18608415404326
H           -2.42810493733532       -4.80972195801195        2.51356422755402
Cl           0.28190092298057       -3.12819182845652        1.43732042939174
Cl          -1.24672555567334       -3.14625186062520       -1.26770042507912
O            0.49809774571986       -1.06444822222818       -1.00376639546443
O            0.23460134523517       -0.52454769587530        1.39633326535953
C            2.16038527301608        0.39125554955046       -0.19318300429042
C            1.12645643424596        1.27932074986262        0.25327749086336
C           -0.77833068073370        1.54153204001129        1.64277922888891
C            2.70601118597298       -1.75550463601400       -1.08003232709472
C            4.04876278446256       -1.51829628507203       -0.97792231028620
C            3.55534351330909        0.67442059756388       -0.02621203891315
C            4.51411590118602       -0.28600110023179       -0.44647188414812
C            1.05192276958578        2.66164105410581       -0.11442015442591
C            0.05862681653237        3.48385909387639        0.47984581782782
C           -0.84467687559922        2.89048778059722        1.39566108416239
N            1.79905426584186       -0.81180843402625       -0.72249268435924
N            0.17507087792589        0.76559747541445        1.07604606478748
C           -1.68948458479539        0.93038990186138        2.53608292386397
C            2.24369503615925       -2.98102071458023       -1.62275621006723
N           -2.45050814183519        0.51112414087216        3.28109258804484
N            1.95858253843145       -3.98368045738949       -2.09334199442052
H           -1.60749025320490        3.48276716037017        1.87427856204428
H            4.74869434991155       -2.28002472797058       -1.27990436123998
C            5.87943019989141       -0.02428170155181       -0.29004635974543
H            6.59128791821845       -0.75806502577823       -0.63586809167660
C            4.01891958382604        1.82813296029082        0.62634598673504
H            3.31322862682286        2.54383943081357        1.01598651486643
C            1.87645604032833        3.21607798725639       -1.10511601778976
C           -0.01947246370025        4.83892308342429        0.12944826946960
C            0.83378925174233        5.36638748081186       -0.81199234938902
H            0.76931495090044        6.41024118094164       -1.07749047272797
C            1.76911810407987        4.54657108335303       -1.44236149527067
H            2.41205677123169        4.95618603727810       -2.20599015448984
C            6.30522369716039        1.14200551268235        0.30654665819770
H            7.35937230336008        1.33815200340587        0.42505302211519
C            5.36832498987786        2.05560536851608        0.78291113628212
H            5.70014023797464        2.95017873973248        1.28709224260197
H            2.59800953968400        2.59087156393578       -1.60713507990506
H           -0.76623646818878        5.45603142159302        0.60547121903187
