59
 energy: -108.499122018792 gnorm: 0.000971687203 xtb: 6.5.1 (b24c23e)
Si          -0.42044822267914       -2.07673015651917        0.42591964961376
O           -1.91692631871714       -0.10307434510578       -0.21827019575168
C           -3.06730116948860       -0.33345897144381       -0.52996744047345
C           -4.05021239917855        0.69908955976965       -0.83515805882064
H           -3.42752351484180       -1.36862857078572       -0.59255064446619
C           -3.68464107769675        2.04793152925285       -0.84713499020370
C           -5.37188506814389        0.34194082138576       -1.10755586870820
C           -4.62582071317941        3.01914113627526       -1.12176886002619
H           -2.65630050896903        2.31032097660956       -0.64555994037310
C           -6.30982249915686        1.31904489216718       -1.37875263002009
H           -5.64896548254330       -0.70145279115802       -1.10230186322323
C           -5.93858960436634        2.65562814473910       -1.38521546472790
H           -4.34171200950790        4.06090113953522       -1.13378500957151
H           -7.33271509172432        1.04396398154326       -1.58706708762464
H           -6.67418517847721        3.41680502399521       -1.59901753367769
C           -4.03894424269839       -3.53707639825602        1.27818531769101
C           -2.89273175250945       -2.98882762172880        1.52969223253233
H           -4.14972333479832       -4.60784536352127        1.23599753872429
H           -4.93023788537129       -2.95217896799522        1.11795205100504
C           -1.73587541477613       -2.45655082233592        1.75433228798018
H           -1.45090849585802       -2.23486091692332        2.77277033230296
Cl           1.10598113242459       -3.39747498522527        1.00536404569042
Cl          -1.42645692657152       -2.99297874931999       -1.17800080653698
O            0.53393856852750       -1.26290434064537       -0.85438382455282
O            0.22295387875078       -0.72493141581816        1.54396023894411
C            2.22760795735051        0.14075741384397       -0.05296422476088
C            1.21081498269167        1.04495958505136        0.39889702124082
C           -0.76523319697915        1.34723546624747        1.67462270108821
C            2.72559529407018       -1.92697972126305       -1.12010354537150
C            4.07479611166984       -1.71901117872508       -1.02219976241231
C            3.62792680381369        0.38309359927640        0.12975293500230
C            4.56550909419261       -0.55723538308970       -0.37244610995560
C            1.19040708316273        2.43326866147304        0.03861092205495
C            0.18482178895124        3.27690517010371        0.57867045655258
C           -0.79202169468385        2.69679550473475        1.42644415002307
N            1.83968592981607       -1.01402268632104       -0.65244596864636
N            0.21533025657727        0.55259958809301        1.18265599526371
C           -1.76927702253202        0.75844368316921        2.47781700912911
C            2.22273632339385       -3.07096395967065       -1.79098204193173
N           -2.61960456332102        0.35556105466886        3.13023918033100
N            1.89286506538992       -3.98223062533615       -2.39912201973514
H           -1.57651435552778        3.30124275091761        1.85265048470165
H            4.75729283797086       -2.45430821216161       -1.41550574087697
C            5.93636341622402       -0.33551536518402       -0.19182303314532
H            6.63542757337335       -1.05087563822983       -0.59747401530073
C            4.11015637457913        1.47203726449276        0.87311649654914
H            3.41402245133481        2.16717261888711        1.31507557898140
C            2.07904353905151        2.97546389773930       -0.90103534032623
C            0.15676426644176        4.63411055724488        0.23443109305742
C            1.07468336544749        5.14956895164517       -0.65367523663627
H            1.04840267066618        6.19646542769478       -0.91404268565915
C            2.02270716486887        4.31164995721544       -1.23486557771099
H            2.71792035544947        4.70845934888731       -1.95857111532123
C            6.38176779202293        0.76719309928548        0.50152523945453
H            7.43938975616506        0.93157412793968        0.63841489394296
C            5.46271914769808        1.65972175983955        1.04927996631025
H            5.81214176482524        2.50394617609058        1.62373134449876
H            2.81377604176878        2.34003805395504       -1.36956566209101
H           -0.60162304437234        5.26563026299740        0.67238113597415
