59
 energy: -108.581342809669 gnorm: 0.000807074597 xtb: 6.5.1 (b24c23e)
Si          -0.57517231955650       -1.63899830584894        0.44076711455414
O           -1.81336225322319       -1.27183030309559       -0.51992195622336
C           -3.19197693937548       -1.55098241860984       -0.44021027961870
C           -3.94669041419341       -0.24732008868849       -0.51134840654973
H           -3.40707804774355       -2.05336306797810        0.51060365401022
C           -3.42368645508573        0.81838761539706       -1.23180807220245
C           -5.15269660771476       -0.09042518806352        0.15698151169038
C           -4.08967615119463        2.03046629056370       -1.27035550376184
H           -2.48383798560883        0.69108114922890       -1.74885301868084
C           -5.82294320911694        1.11862041956739        0.10876377237164
H           -5.55680235682868       -0.91311430097106        0.72721890724896
C           -5.29097885005091        2.18276545414010       -0.59986373428835
H           -3.66983039103384        2.85689506829425       -1.82698890393792
H           -6.75805954695916        1.23481289635936        0.63558948719549
H           -5.81096286684960        3.12927447051906       -0.62792734990856
C           -3.57210604450038       -2.48206165003983       -1.60584238843963
C           -2.82799595446801       -3.72038590704068       -1.51411538829987
H           -3.33078733897326       -1.98311057817042       -2.54800939642019
H           -4.64599391000244       -2.68012752708564       -1.56874319416315
C           -2.16482802313221       -4.70936809095328       -1.40018555494535
H           -1.59626355989782       -5.58686078196079       -1.32044847658428
Cl          -1.60433101602579       -2.37732925524035        2.13676792704126
Cl           0.76219090727311       -3.22069928913585        0.42621910196853
O            0.39644574079826       -0.86960942218030       -0.99584635785759
O           -0.00771642792966       -0.30207828334788        1.38895217437823
C            2.11314335572946        0.43935580081559       -0.15855840421461
C            1.10544658230911        1.39654662130186        0.20174421734730
C           -1.07391974359150        1.73405248963583        1.11644198404167
C            2.56882150943383       -1.58683142878223       -1.31487388202746
C            3.92122194668481       -1.44083575819641       -1.14875633360129
C            3.50653390936062        0.59938822844625        0.11686614471636
C            4.42590453415123       -0.35810955164086       -0.38674227135665
C            1.14814899458398        2.77121408381481       -0.20057120236104
C            0.04292400509229        3.61510651855128        0.09570131367638
C           -1.08173065556910        3.05416268403353        0.75943297012028
N            1.69898699723353       -0.68042845948532       -0.80608912129034
N            0.00221301533337        0.94918197918505        0.86576347669676
C           -2.17648404585525        1.17538035969716        1.80887038509994
C            2.04023983005840       -2.63219725756832       -2.11532648015955
N           -3.09134969491853        0.79886176396762        2.38325220113568
N            1.69249908103826       -3.44171891728419       -2.84555707169541
H           -1.94937169311838        3.65740459448535        0.97030104972024
H            4.59221475724603       -2.16673858898388       -1.57776422768529
C            5.79257447024520       -0.21637767539614       -0.10752468550740
H            6.48241369514746       -0.94120182540686       -0.51188389173829
C            3.98838419031544        1.62349987925434        0.94808028997444
H            3.29370659243323        2.32656648030276        1.38053473112451
C            2.19895141858937        3.30387303588097       -0.96414281941211
C            0.06334412076958        4.95603211979359       -0.30045627724304
C            1.13330648360774        5.46345962708543       -1.00569776646020
H            1.14344579116299        6.49954520208921       -1.30609613757550
C            2.19053338071713        4.62657451134836       -1.35101997933405
H            3.01240426409250        5.01312704142482       -1.93376096957483
C            6.24077024548548        0.81842539025269        0.67935723608752
H            7.29323307599691        0.91914784308246        0.89448357767882
C            5.33249601924558        1.72879619007393        1.22064890149494
H            5.68595917726598        2.51898377296612        1.86486498417267
H            3.02246446230438        2.67252466248961       -1.25599286761257
H           -0.77779305119046        5.58382867710540       -0.04873174282402
