77
 energy: -129.339778512506 gnorm: 0.000684578108 xtb: 6.5.1 (b24c23e)
Si          -0.73967404530548       -0.50727159023312       -1.18423648807801
O           -1.72374334981488       -1.30652300809080       -0.18033516595751
C           -2.31149856807819       -0.97863485173175        1.05397114925565
C           -3.79623934932548       -0.75246117776723        0.89754619450697
H           -1.86389530031398       -0.05554501665296        1.43442748736178
C           -4.44634998495948       -1.01221172244293       -0.29885746860201
C           -4.52181672665433       -0.24634423186156        1.97002116997058
C           -5.80210907959053       -0.76046670336353       -0.42348062576906
H           -3.88431167204865       -1.40624548995344       -1.13105770967896
C           -5.87605945149105       -0.00011905791102        1.84547894805841
H           -4.01926031475091       -0.04126655776589        2.90551949881473
C           -6.51930827510749       -0.25343332545890        0.64524892961259
H           -6.29742749305394       -0.96096840665444       -1.36175948970188
H           -6.43110072813696        0.39396523002921        2.68488041210707
H           -7.57653432958506       -0.05540192125505        0.54591814346110
C           -2.00131412486262       -2.12604361649724        2.03788676659765
C           -0.66892285508867       -1.97471047876941        2.57947927494337
H           -2.72858384471984       -2.12390226822548        2.85318162110031
H           -2.08070274289747       -3.06943514261190        1.49182726976085
C            0.43160117822403       -1.78638715082070        3.01176774496433
H            1.39513847396496       -1.64717072360775        3.40341568855997
Cl          -1.19895463663052        1.10809010113356       -2.39870884523432
Cl          -1.15258458066339       -1.92894684933576       -2.70146163581469
O           -0.27346573048636        0.64837008065999        0.21031938523964
O            0.92501624072800       -0.88361376157969       -1.33360955256453
C            1.88907660648638        1.40622061119797       -0.13610816244380
C            2.35265365697300        0.10456011921579        0.25986081156745
C            2.08295283781092       -2.27454488136737        0.11034436332842
C            0.02977288982430        2.90463619766818       -0.23782430423967
C            0.84592963367013        3.94192379425955       -0.59357008201042
C            2.76356970720802        2.44432516830779       -0.57628340002370
C            2.22930085049629        3.73557141332860       -0.81838448071767
C            3.34735798519682       -0.06571693821210        1.27283900062376
C            3.71721970575878       -1.38071740454641        1.66040821181372
C            3.04520858300448       -2.47589007653843        1.05620066484408
C            4.11716329006652        2.20729651478220       -0.87235455459816
C            3.07573043038160        4.75708010498061       -1.27235675035621
C            3.90827178998173        1.01448203337116        1.97763714081216
C            4.68771662182901       -1.56662025059753        2.65206640251769
H            3.28778643601227       -3.48324969145219        1.35255081025260
C            1.37220396260664       -3.40008748856966       -0.51853275890200
N            0.55590065685692        1.66721625344197       -0.06232882645092
N            1.78386487947713       -1.01157848762700       -0.28359684161153
C           -1.40450262040868        3.09371520283802        0.03166855126732
H            0.42306607374952        4.92573985209748       -0.71385477818272
C            4.40485235226176        4.50681830383212       -1.51841828288100
C            4.92030481455682        3.22335255150123       -1.33224877375299
H            4.52277115030246        1.21612674057239       -0.74140585687231
H            2.66054882223355        5.74037545641115       -1.43445355105469
H            5.04963122817527        5.29718214206647       -1.87147872842918
H            5.95683925540241        3.02475819069120       -1.55829873382573
C           -2.21902707717748        3.70852203723750       -0.91375791769166
C           -1.95153128272551        2.68018880599095        1.24228603057858
C           -4.11438528545167        3.43317989029085        0.53126076941696
C           -3.30085535429001        2.85399330378018        1.48929833102262
C           -3.56924780225915        3.86690580768302       -0.66586617640979
H           -1.79413447334107        4.02052837077245       -1.85457219393212
H           -4.19999667260626        4.32422281081975       -1.41314493493431
H           -5.17145069504046        3.54674700208727        0.71938829026443
H           -3.71960641036920        2.53383117403244        2.43105641542837
H           -1.31626743662637        2.23499075313403        1.99469606144418
C            1.42932915653344       -3.61185268030311       -1.89137606352313
C            0.65138409771338       -4.27767125548345        0.28577681244270
C            0.02711410991168       -5.54244572549384       -1.65402510715637
C           -0.02506287923415       -5.33925350376518       -0.28493008423930
C            0.75980832391619       -4.68278286120045       -2.45320970286217
H            1.98923068897599       -2.93516290785225       -2.51806781314103
H            0.79717803093199       -4.83267149903613       -3.52064156690160
H           -0.50862312549205       -6.36789376283208       -2.09805831125782
H           -0.59799733191045       -6.00775374961291        0.34131628611017
H            0.60504031073078       -4.10230454130185        1.35081564544638
C            4.84902734207282        0.80365520633390        2.95967399850994
C            5.25968877160651       -0.48684803279437        3.28711558708936
H            4.97223304347609       -2.57453833246500        2.91543573754128
H            3.59726244456460        2.02120576428960        1.74918774039150
H            5.26735174877630        1.64883183689405        3.48489865106091
H            6.00741244805443       -0.63834970209800        4.05047072171592
