77
 energy: -129.328451499694 gnorm: 0.000564984173 xtb: 6.5.1 (b24c23e)
Si           0.64870031292735        1.04478756206589       -0.16804618011352
O            2.23480522485582        0.90538980883605        0.22600582329545
C            3.30003009688414        0.14234573049705       -0.26242900616216
C            4.60011619945647        0.80962718148855        0.11699443148736
H            3.24646192647528       -0.84783268947679        0.20652092547700
C            4.71065972598990        2.19251210862745        0.07801879456942
C            5.70448902168652        0.04537903953057        0.46774088558289
C            5.91096812177580        2.80324574720700        0.39446053510167
H            3.84566399483579        2.77940774619016       -0.19069036419669
C            6.90625291597041        0.65732355509031        0.77698977908353
H            5.61755942936405       -1.03205153766301        0.50008004169552
C            7.01125185875501        2.03762960976443        0.74174417926048
H            5.98855578550207        3.88021842345523        0.36738526647289
H            7.76211393991014        0.05631748688438        1.04930683795250
H            7.94910579851134        2.51466240385714        0.98671706822870
C            3.28570657556822       -0.04142951445074       -1.79584166489681
C            2.11823458939243       -0.75141458895779       -2.26293862772425
H            4.18728365395785       -0.59316895214042       -2.07618405660687
H            3.30576871876312        0.94474035479585       -2.26603125241228
C            1.13965050302846       -1.32650420456207       -2.64606753345535
H            0.28942507805886       -1.81882633520235       -3.01533274787860
Cl           0.16831303140154        2.17231478791120        1.47017688820175
Cl           1.01790660261744        2.23948338108054       -1.87621556487394
O           -0.98884335683514        0.98504968032567       -0.90482344541546
O            0.30512613487845       -0.56853800754814        0.52766483874004
C           -2.47341829302694       -0.37568822899408        0.25066651617798
C           -1.73085593086416       -1.51634355452645       -0.20993877670809
C            0.29572314937995       -2.77435648037846       -0.16905549117251
C           -2.75622955966724        1.99800117030337        0.20754160200468
C           -3.88027448639256        1.90349449863983        0.98098906682746
C           -3.62154934126019       -0.51493025926393        1.09010825939063
C           -4.33724835345570        0.65228665253425        1.46135230095691
C           -2.39234888553191       -2.59228322187286       -0.88266653777732
C           -1.67411274180242       -3.78083145134480       -1.16513540465978
C           -0.32483525878540       -3.85423508511895       -0.73246176425902
C           -4.01355118756180       -1.74639257780233        1.64362900540371
C           -5.45768228540869        0.53967390874195        2.29685430543326
C           -3.71018294058192       -2.47885912415154       -1.35724085575172
C           -2.30513478989245       -4.83133071265773       -1.84046484078112
H            0.22276390976467       -4.77534054527936       -0.84578943133569
C            1.66681109733830       -2.90260811355604        0.34764301995650
N           -2.08714456948438        0.86726282705016       -0.12751413568949
N           -0.38499752853947       -1.61042894418971        0.01098129013944
C           -2.28878210762142        3.29057230902721       -0.31196715032563
H           -4.42287619587497        2.80090019141522        1.22838626493970
C           -5.84529023096305       -0.68446250106816        2.78762222577822
C           -5.10780833469907       -1.82589752751064        2.47172901537169
H           -3.44863095396169       -2.63737098525372        1.41895621452668
H           -6.00450212617623        1.43456898511335        2.55295848537555
H           -6.70808071141588       -0.76393162959900        3.43124362015350
H           -5.39445064907138       -2.78019922161002        2.88677656477665
C           -2.13249829232674        4.35937706119686        0.56684248032700
C           -2.03118494821365        3.47304554190661       -1.66694096450214
C           -1.43963832889562        5.76014511352204       -1.25220311939083
C           -1.60824122978649        4.70465064784657       -2.13118935538273
C           -1.70438092203782        5.58538618221151        0.09653709312382
H           -2.30804729959925        4.20773295978410        1.62031802032408
H           -1.56822072945922        6.40510101004485        0.78626884238326
H           -1.09699612505463        6.71726359027425       -1.61648236679224
H           -1.39860670162518        4.83353293402306       -3.18196682413063
H           -2.15748197389555        2.65372544654635       -2.35763151113754
C            1.96429357502145       -2.53789950544218        1.65871339832382
C            2.65789211700933       -3.48017596811698       -0.44231874626323
C            4.21908271873774       -3.31134784308407        1.37176355504217
C            3.92809072994432       -3.67621895575070        0.06681514297641
C            3.23542619919002       -2.74329877049001        2.16439433361380
H            1.20368220959898       -2.09271021759431        2.28064039305182
H            3.45889065279227       -2.45401210088828        3.17994570770804
H            5.21048149694844       -3.46873171972491        1.77034188344762
H            4.69319171197972       -4.11445900899729       -0.55697821505075
H            2.43424690916279       -3.74890200638788       -1.46346409708846
C           -4.30547406551862       -3.52222153561277       -2.02957170942734
C           -3.61094158812884       -4.70755795981997       -2.26112138125168
H           -1.74820897656216       -5.73668713928243       -2.03040378288577
H           -4.25717379405374       -1.56290392927793       -1.19764318311649
H           -5.31821397026834       -3.41609135656899       -2.38744269303329
H           -4.09226295313487       -5.52075662657384       -2.78252212103907
