77
 energy: -129.338111018939 gnorm: 0.000403684631 xtb: 6.5.1 (b24c23e)
Si           0.55595373359087        0.78890365116214       -0.09995648126896
O            2.05644475963328        1.32776070648132        0.21824554036520
C            3.22648242236615        1.47067656355986       -0.53774122835726
C            4.42691894707529        1.01810997789446        0.25119419173310
H            3.14651092424747        0.87990935073694       -1.45829120728954
C            4.40357009503299        1.00463907567737        1.63786617412686
C            5.59084184104091        0.65661711277950       -0.41495145840937
C            5.53084075026158        0.63407820831759        2.34988434159976
H            3.49288972894736        1.27891142989676        2.14716433154106
C            6.71935657037727        0.29567817064685        0.29802468533694
H            5.60848248182522        0.65694119594449       -1.49565725047510
C            6.69208681975758        0.28446990605681        1.68291701960192
H            5.50452587788108        0.62501357337988        3.43004582609705
H            7.62242051992234        0.02022477042567       -0.22776377633822
H            7.57418016808620        0.00204400666273        2.23937570299647
C            3.38726547058711        2.96276755663153       -0.90748390266371
C            2.22883926935061        3.42057352899914       -1.64103168286981
H            4.29347781195448        3.09109845252278       -1.50361016935120
H            3.47945365261112        3.54044916467532        0.01629909068236
C            1.22431181856906        3.73952381089245       -2.20716289400584
H            0.35559951965606        4.03730799348102       -2.71241645588756
Cl           1.02747013627797       -0.02108886097928       -2.04490107257286
Cl          -0.08406936197069        1.98497043227103        1.54417315417010
O            0.30049114729493       -0.66157037602906        0.76984033585297
O           -1.05856575372478        0.83998215825569       -0.81393612611339
C           -1.63640149875228       -1.68648506459161       -0.03569927812270
C           -2.40769049287741       -0.56622103025817        0.44963693241036
C           -2.85424957762850        1.78270863133867        0.33323856709356
C            0.52033732972457       -2.69869545278277       -0.32269093048876
C           -0.03525756120105       -3.77831698022185       -0.94744701067443
C           -2.25067265812361       -2.78740260808950       -0.70405427577853
C           -1.43565882938736       -3.85705003992148       -1.16050607766810
C           -3.48591295535004       -0.73580311120720        1.36664477682202
C           -4.25189877608038        0.39740281568585        1.74525922448928
C           -3.91675816599569        1.65410187773876        1.18202490738940
C           -3.62192458603726       -2.81230584531294       -1.01800982223266
C           -2.02326292899720       -4.93913395291902       -1.82747291330363
C           -3.76224040120440       -1.96979970285793        1.98337293690314
C           -5.30318832184849        0.24615538760483        2.65917807694740
H           -4.50271766536927        2.52436689167848        1.42765012396249
C           -2.52320838598208        3.06722850169668       -0.30112904679071
N           -0.28421728674520       -1.70694285492689        0.12845558848478
N           -2.12881208018386        0.68911316241270        0.00199436497441
C            1.96741741125312       -2.59580891213550       -0.08111208281170
H            0.60335973845448       -4.57641861731243       -1.28837182497230
C           -3.37628386058475       -4.95904683530933       -2.07774497120374
C           -4.17009903071149       -3.88160101063797       -1.68624441285976
H           -4.24882507863050       -1.98279723156952       -0.73170354428766
H           -1.39236094450283       -5.75431115054665       -2.14848086314087
H           -3.82167199344788       -5.79662916875228       -2.59243322351060
H           -5.22491926998985       -3.88261569476061       -1.91543107015749
C            2.84982287964974       -2.76026102849712       -1.14442529932128
C            2.46752849008570       -2.36789494876949        1.19740374194102
C            4.70770875449568       -2.48064386396887        0.34710313148982
C            3.83278899586151       -2.31558911719420        1.40678635337988
C            4.21332214961519       -2.69460349807817       -0.92853299779214
H            2.45782638196442       -2.90595645707951       -2.13898338648008
H            4.89308697993607       -2.81092887806666       -1.75930431004014
H            5.77271205759748       -2.43500626631495        0.51584064114968
H            4.21558270398949       -2.14265638459239        2.40102029203256
H            1.78884365875292       -2.23965554307282        2.02662464511657
C           -2.45045171211435        3.17035511778689       -1.68657878917878
C           -2.33656029844656        4.19963916617910        0.48489408017864
C           -2.00690618780043        5.52141349080173       -1.49020943364872
C           -2.06858691463027        5.41784636749147       -0.11023460917571
C           -2.20206333429953        4.39727195992546       -2.27529153106677
H           -2.59458065613188        2.29444857324654       -2.30132162601382
H           -2.16373470496848        4.47469954011824       -3.35298568002678
H           -1.80194831903619        6.47577436481999       -1.95306551639617
H           -1.90723631739857        6.29065828750779        0.50433778640409
H           -2.36563912670512        4.10488355766410        1.55854063624231
C           -4.79292873545960       -2.08685385855121        2.88484475727577
C           -5.57789840692487       -0.98158871349392        3.21488248022636
H           -5.88889879667752        1.11362098904019        2.92357124230942
H           -3.15660589359183       -2.83013717413171        1.74515632018453
H           -4.99223391768882       -3.04183159140741        3.34689500946032
H           -6.38931721052340       -1.09041465575371        3.91824522175801
