77
 energy: -129.344631467278 gnorm: 0.000307425547 xtb: 6.5.1 (b24c23e)
Si           0.64465071141130        1.01447224005149        0.20819992768577
O            1.68033865027276        0.11971418305758       -0.67458138702315
C            2.59660644302972        0.54711196075726       -1.65428040852475
C            3.77822192463631        1.25112827137149       -1.03980265535086
H            2.08401521134806        1.22622833593182       -2.34494665488426
C            4.22235783364299        0.89088153077335        0.22371401597163
C            4.44646081486916        2.24578288280677       -1.73999795598856
C            5.31818737841102        1.52073166448693        0.78506088880799
H            3.69314232706232        0.12713380993627        0.77211153636972
C            5.54582545268309        2.87080372294966       -1.18039668382428
H            4.09325496375868        2.53951509603484       -2.71764907184768
C            5.98442208056743        2.50946110174272        0.08265899893819
H            5.64788102461015        1.23862809819246        1.77413808662020
H            6.05744311349731        3.64869606253200       -1.72805675749119
H            6.83949305213460        3.00360310142867        0.52036461736234
C            3.07967342228701       -0.69370098693680       -2.42870120184329
C            1.95738936802358       -1.46107882139300       -2.92262527824789
H            3.70339887952639       -0.36341107157923       -3.26298696618001
H            3.68249296575910       -1.31071770109188       -1.75835103768978
C            1.00146308967822       -2.07736391504439       -3.29516155484431
H            0.17321259277745       -2.62183113547389       -3.63893205622830
Cl           0.98912510436917        1.76999122558689        2.09206486667257
Cl           1.01303172885614        2.90658952526807       -0.75971155623387
O           -0.92241359764373        1.01423750285650       -0.50538368612702
O            0.17452005093905       -0.48317840546770        1.12462725641547
C           -2.36972305484709       -0.63359811703730        0.34752348838790
C           -1.43739074443789       -1.64988097134167       -0.05444259788588
C            0.74101685028819       -2.57952114680863        0.26144956691295
C           -2.78693213312165        1.70463051462687        0.67977004877728
C           -3.97966434680943        1.44260940710740        1.28474778743768
C           -3.61087233289943       -0.95037540130885        0.98501705794326
C           -4.43973475743825        0.10841578200597        1.44113624545509
C           -1.80432153227063       -2.74420208869536       -0.89289276827928
C           -0.87699901736573       -3.79933242562380       -1.07902120269622
C            0.38198253466959       -3.70087129658430       -0.44136112872813
C           -4.00522730432026       -2.26904357671479        1.27487031343410
C           -5.65785791152804       -0.18076334172577        2.06729213204442
C           -3.01522642138993       -2.77337602690635       -1.60531050761614
C           -1.22193803726079       -4.88328189806551       -1.89966072405099
H            1.07975302742864       -4.51699301232160       -0.52824137416865
C            2.07173877107809       -2.47256065027774        0.87415941583861
N           -2.03746135237934        0.68164933555882        0.19933737777077
N           -0.16275510070463       -1.58219290356216        0.42031702681411
C           -2.28016311014109        3.07746451553722        0.50225578394431
H           -4.57410596702039        2.26216613655486        1.65380520591669
C           -6.04419171551715       -1.48354851417027        2.28489222555664
C           -5.20049542683006       -2.52571687410269        1.90543373804115
H           -3.36370350965735       -3.09166690273003        1.00337177623266
H           -6.28428479050228        0.63960467832104        2.38378055890429
H           -6.98536071572851       -1.69913297676158        2.76695180993106
H           -5.48308972248077       -3.54657433666467        2.11317133794829
C           -1.90529261086974        3.81530382631737        1.61914200765015
C           -2.17697508639852        3.63745344322473       -0.76543361933180
C           -1.31976486083929        5.65740383805175        0.20032204258906
C           -1.70274589634400        4.92729580015669       -0.91148515651450
C           -1.41918790932997        5.10002522412492        1.46355891442367
H           -1.96653113475723        3.36751124519435        2.59979698475872
H           -1.10795738141502        5.66127227874923        2.33153450760913
H           -0.93260107138547        6.65807978457056        0.08087171968796
H           -1.61594597337927        5.35577313397362       -1.89819008793813
H           -2.45929019929323        3.05848137917782       -1.63202166680743
C            2.26526460766877       -1.95085245281895        2.15128756668394
C            3.17523701724482       -2.95339842895488        0.16858320063303
C            4.62960872771368       -2.34338174922890        1.97545722977998
C            4.44334094988138       -2.88250955705465        0.71274890928309
C            3.53722816703945       -1.88603293733990        2.69232988654041
H            1.42670546175211       -1.59119153318797        2.72506121088832
H            3.67224930364382       -1.46851117386048        3.67867482647084
H            5.62205083818850       -2.28016759380115        2.39595368127479
H            5.29046167933198       -3.24478975120295        0.14846494956124
H            3.03274362406798       -3.36464804027771       -0.81992319804262
C           -3.31954131056248       -3.83827548111171       -2.42061336706458
C           -2.43045727297836       -4.90561545319547       -2.55587202902539
H           -0.51511932586831       -5.69102793790766       -2.01784050694780
H           -3.70552108036386       -1.94951491203021       -1.51111231454445
H           -4.25127401027362       -3.84606384511803       -2.96540216769648
H           -2.68748301776208       -5.73994729354949       -3.19092240029648
