77
 energy: -129.338817157054 gnorm: 0.000667329119 xtb: 6.5.1 (b24c23e)
Si          -0.73239823996815        0.80420645017246       -0.98688416128356
O           -2.04583135836148       -0.02262208914329       -0.50702960674043
C           -3.29238037513117        0.32269563190398        0.06328807461188
C           -3.05509912111473        0.95804732152608        1.41493789367822
H           -3.77810917456772       -0.65473131094423        0.21630536143658
C           -2.24652125657050        0.25805035148283        2.30534764446212
C           -3.55225787420492        2.19595760819351        1.79216098205277
C           -1.92595624510357        0.78699682394728        3.54028240479178
H           -1.85930790975068       -0.70943982930220        2.01597982474646
C           -3.23752256362422        2.72279265151236        3.03384434235035
H           -4.17201542080925        2.76713097353287        1.12078365485592
C           -2.42268157974490        2.02623664424894        3.90803276079452
H           -1.28870364803303        0.23146351800074        4.21412605063938
H           -3.62521584563288        3.69136658110540        3.31351036942556
H           -2.17325523623410        2.44664468802052        4.87148669192127
C           -4.16798555822691        1.13286791911547       -0.90012546400089
C           -4.24637874086769        0.47482046795302       -2.18639928180026
H           -5.16857795135088        1.22700664523642       -0.47031428711921
H           -3.73351671222285        2.12309960560107       -1.04704246178582
C           -4.27582763115718       -0.06814217702745       -3.25166914873878
H           -4.31902607980104       -0.52554287277474       -4.19367604282914
Cl          -0.23016569522945        1.11218027244816       -2.94792206452379
Cl          -1.44509387241996        2.81248754155516       -0.66346862287187
O            0.42699976948841        1.12981167298782        0.25712686611716
O            0.09510759309478       -0.81766102315055       -1.22222598479058
C            2.13316559273599       -0.47687572700198        0.42575321486407
C            1.13049538782175       -1.45681331792275        0.74123962016015
C           -0.82726545707629       -2.59810180683814       -0.01135246019404
C            2.58874879736880        1.75951564544276       -0.30119088941784
C            3.92360850052443        1.49406845878401       -0.38728976873629
C            3.52215994628793       -0.79734895567911        0.34341474177059
C            4.43601073740535        0.21059580218151       -0.06198962133239
C            1.16129010796149       -2.23880010202093        1.93185415295614
C            0.18145749444021       -3.24826406892063        2.10620349606656
C           -0.78721564901521       -3.41816141757904        1.08791267738239
C            4.01456778630430       -2.09893677979861        0.54744905056282
C            5.79952064703121       -0.08932346382275       -0.16391086960353
C            2.06900156334828       -1.99029717300889        2.97585224029416
C            0.19055119009080       -4.02449175567724        3.27366534017681
H           -1.51368269811697       -4.20889862868155        1.18040668771058
C           -1.85274242802255       -2.78528708563155       -1.04553864080210
N            1.73753269695349        0.78978347143738        0.11510601967523
N            0.11752493547088       -1.63652505687322       -0.15255375871245
C            2.03208974231780        3.08750860085153       -0.61178399791361
H            4.59416900169241        2.27313346520709       -0.71092725775578
C            6.25943025521422       -1.36162328184394        0.08962479184643
C            5.35776078650171       -2.36933985516239        0.42759623177462
H            3.33182360082193       -2.89513193066513        0.79751761489163
H            6.48225429759244        0.69527954060959       -0.45346809796119
H            7.31204376422837       -1.58550998067123        0.00856627131251
H            5.71457829566900       -3.37492112786053        0.59086633288894
C            2.11992148358632        3.58375875328788       -1.90736015074493
C            1.42957566211896        3.84922906544387        0.38320691518678
C            0.99941296106167        5.58661921569397       -1.21170947901045
C            0.92084055079367        5.09813054484688        0.08104280894896
C            1.59614477985389        4.82810152709200       -2.20431543815490
H            2.56666192840906        2.97776396105287       -2.68101965431889
H            1.64582829413748        5.20000778974028       -3.21637395705330
H            0.58455212019765        6.55493453208510       -1.44788848498135
H            0.44602274256218        5.68217436811340        0.85453330820840
H            1.35210611526847        3.45796203912984        1.38688320553496
C           -3.16135740593279       -3.06956222827826       -0.65654674555843
C           -1.54349319489414       -2.74738482609939       -2.40198898456699
C           -3.82416982701487       -3.26054214081214       -2.95074342799090
C           -2.52615458704022       -2.98564075829838       -3.34439112321925
C           -4.14015583162594       -3.29850732165922       -1.60331349277712
H           -3.41354002671703       -3.09483043517720        0.39411946118886
H           -5.15259758361577       -3.50576551837140       -1.28946683222693
H           -4.59051497888700       -3.44571230944489       -3.68874010719201
H           -2.27176039206438       -2.95559979961493       -4.39337986205798
H           -0.53570959129108       -2.53661886247750       -2.72167597846715
C            2.04645496560487       -2.75728807445357        4.11688671299414
C            1.11778231528909       -3.78857465154477        4.26172443435069
H           -0.54759882436908       -4.80455064868101        3.38532141884777
H            2.78571366440686       -1.19005839926405        2.87645415581246
H            2.75054484135380       -2.55615489505779        4.90989930145553
H            1.11958965083817       -4.38962146230556        5.15830807850839
