77
 energy: -129.340174252842 gnorm: 0.000596203565 xtb: 6.5.1 (b24c23e)
Si          -0.05703673083694       -1.19073491376539        0.83352990214650
O           -1.08734650220284       -1.50626368504851       -0.37653934135475
C           -2.15311419722605       -2.40700566139078       -0.51192783145862
C           -3.29747412172742       -1.70989978146638       -1.20235553713364
H           -2.46705539163199       -2.75503042250104        0.48023799798083
C           -3.04441339892289       -0.69229694522188       -2.11296838050989
C           -4.60988689933613       -2.08343124802492       -0.94692662257795
C           -4.08990641548211       -0.04714757016114       -2.74984010592821
H           -2.02207410761720       -0.40044293006007       -2.30034113768819
C           -5.65434176816505       -1.44436960135030       -1.59132641249276
H           -4.80971977406122       -2.86953992538671       -0.23341892324979
C           -5.39749559537442       -0.42306644797553       -2.49121889919377
H           -3.88341585861908        0.75134903415147       -3.44844762513664
H           -6.67344895171297       -1.73917196762749       -1.38717441705966
H           -6.21465359097630        0.08008226272117       -2.98742865184916
C           -1.68541650328702       -3.61422480575739       -1.35190109470156
C           -0.58112807918641       -4.28415229193299       -0.70013126358357
H           -2.52318956728871       -4.30318866189212       -1.48472773926852
H           -1.36114218204486       -3.25094029749107       -2.33105584644540
C            0.34919457536498       -4.78519637151123       -0.13927940244441
H            1.16253780282561       -5.23255139930292        0.34834053692281
Cl          -1.33993394928775       -1.89878161136000        2.43190608682307
Cl           1.58189400048090       -2.12176671801398        1.68686075343831
O            0.96947516553156       -0.57850200358560       -0.54625403622536
O           -0.13546679088635        0.41380345757193        1.45487547004207
C            1.86587342700992        1.48835298451052       -0.05160683476743
C            0.52508558071733        2.00664223143286       -0.13302018500430
C           -1.75682245986822        1.83955616142853        0.58473036227256
C            3.29016109270305       -0.40746504467230       -0.36233184643750
C            4.39829812392503        0.36638179557393       -0.13706553344012
C            2.99065367950268        2.31267948644335        0.24306134754873
C            4.28616799738322        1.73725446981448        0.19779390471568
C            0.18180646039481        3.07783001665407       -1.01299520672778
C           -1.16574698682794        3.52097101333882       -1.06208653400351
C           -2.11672067800630        2.87513722017565       -0.23081167469370
C            2.85956812334192        3.64969867639590        0.65773888485539
C            5.40376892510652        2.53222779419732        0.49003596775831
C            1.10270748993685        3.64781880898907       -1.91031039061044
C           -1.52494655746721        4.55736667534917       -1.93176961910440
H           -3.14185827288429        3.20710679642208       -0.23569624072217
C           -2.73602694777625        1.19352493445156        1.47041976408986
N            2.06141546200149        0.16358281125090       -0.29682272069421
N           -0.46328867502286        1.43120069191651        0.61099994664530
C            3.41629398346644       -1.82642344150779       -0.72361566723002
H            5.37549991464974       -0.08048741070030       -0.21790728167793
C            5.24954600879079        3.84916931021454        0.85381486983990
C            3.97173958649797        4.40151777032203        0.95291381233320
H            1.87598266002419        4.08428057974960        0.74498585116673
H            6.38609299714588        2.08816671238463        0.43143566975596
H            6.11407021056714        4.45491124633121        1.07905397248985
H            3.85515166182793        5.42662505670406        1.27008198134098
C            4.30483020785630       -2.63055557322059       -0.01238944803251
C            2.69461294999055       -2.37789498483937       -1.77807221032093
C            3.72196219905143       -4.51016259495342       -1.38178264153282
C            2.84784747365035       -3.71358496795057       -2.10045118863956
C            4.45144204472642       -3.96431669899046       -0.33805108236594
H            4.84724422614861       -2.21374206571952        0.82187770635452
H            5.13054038596589       -4.58259941903698        0.23018425499129
H            3.83050177805381       -5.55563646521838       -1.63080639191942
H            2.27595755495896       -4.13572980206513       -2.91298395186650
H            2.01219250932559       -1.76471401937855       -2.34448894377201
C           -2.48760964207845        1.04167932542925        2.83162902703040
C           -3.95464826282487        0.77124907070204        0.94636554094678
C           -4.63327424204635        0.00793558858998        3.11545413360393
C           -4.89217419992032        0.17176257940951        1.76510426957492
C           -3.43549635042023        0.45330244001142        3.64690632797574
H           -1.55228385566575        1.37907233887353        3.25059881658687
H           -3.22935641676689        0.32881393508118        4.69869065178018
H           -5.36298353264255       -0.46871996490275        3.75261997776644
H           -5.82438154962556       -0.17244242534551        1.34252501609829
H           -4.15201810999351        0.88933474662096       -0.10809818916427
C            0.72049541081369        4.65727296538728       -2.76345320818685
C           -0.59080227586313        5.12916008190124       -2.76601968253605
H           -2.55033302173634        4.89549420658923       -1.93927658566840
H            2.11909973965067        3.28836153801659       -1.93223358125876
H            1.44420075849864        5.08272347810204       -3.44200710211456
H           -0.87464975457793        5.92866684611857       -3.43314959408064
