77
 energy: -129.344251643434 gnorm: 0.000334291215 xtb: 6.5.1 (b24c23e)
Si          -0.17648878494854       -1.60059139292768       -0.11804877435849
O            1.37785936321372       -1.36916418907326        0.29196412898842
C            2.15795790030033       -1.80188998932648        1.38744876042529
C            2.61093139223075       -0.53671807918074        2.08351071590915
H            1.51977689080707       -2.38341347581259        2.06629698164066
C            1.61490929372158        0.30873110875698        2.56530323080807
C            3.93519271680568       -0.14057346958559        2.19867603161513
C            1.93131932189419        1.52854458670442        3.13057890462705
H            0.58382875618166       -0.00328998395438        2.48556612819873
C            4.25310493756998        1.08160612715655        2.77057508223001
H            4.73169782685155       -0.78092770708483        1.85196391525007
C            3.25568919409833        1.92216063259998        3.22921790348849
H            1.14622335580125        2.17559774556768        3.49401966661376
H            5.28910885402296        1.37781247471407        2.85397907529357
H            3.50587173812718        2.87754476049392        3.66625442805550
C            3.27951766504138       -2.71334546989785        0.87542492250760
C            2.70513690452304       -3.83642613833181        0.16275915100804
H            3.86567453858773       -3.07276757785168        1.72496230315393
H            3.92116647499539       -2.15921715019967        0.18671461734240
C            2.18861775171640       -4.72644080331551       -0.44628711670210
H            1.73877637145946       -5.51608781424326       -0.96904241520587
Cl          -0.81056798064906       -2.69992035021369       -1.72187504036304
Cl          -0.64296685987691       -3.11333256758759        1.33476113575060
O           -1.25708659495710       -0.56401380603958        0.74298246177742
O            0.02029251612302       -0.25062837857083       -1.34449512528255
C           -1.64038717591280        1.52275576011504       -0.27019729362819
C           -0.22513471698691        1.77140037852455       -0.24897165945766
C            1.91722730081241        1.08607811037315       -1.05654729651721
C           -3.39389262759922       -0.09721848637183       -0.02545573546100
C           -4.31691443545909        0.77993189096308       -0.51207513360068
C           -2.57917567998666        2.47355951698817       -0.77756022975522
C           -3.94572055281794        2.10071157734686       -0.88012788965275
C            0.35366601560632        2.90832591099940        0.38637954894414
C            1.74179266417737        3.14235877862979        0.22794466218683
C            2.48785868467116        2.22417663360465       -0.54671543565396
C           -2.19672586635844        3.73229595909201       -1.27502503286359
C           -4.88045899596169        3.01702493118039       -1.37582032434693
C           -0.38157530843425        3.75016154442961        1.23842018783041
C            2.33039376351519        4.24999809027295        0.85437594588857
H            3.53325915425153        2.41595238113674       -0.72253989584876
C            2.71841302520802        0.11131051999709       -1.80742207645970
N           -2.10578747999841        0.30089068774083        0.12122400803590
N            0.58812809752866        0.88041305010734       -0.88255548836869
C           -3.74221775355585       -1.47252129490470        0.37319012528312
H           -5.34087726020693        0.46149566435541       -0.61862841789865
C           -4.48411090115087        4.26415901975452       -1.80276576229689
C           -3.13428149813790        4.60885004576822       -1.76978851549447
H           -1.15654303960646        4.01546292523342       -1.27045845271204
H           -5.91825827099357        2.72323583809752       -1.42349672837598
H           -5.21102919787690        4.96610924901037       -2.18158056515621
H           -2.81769184972438        5.57166714457757       -2.14120725841621
C           -4.17354340610627       -2.37331872667198       -0.59407015026374
C           -3.63966785662770       -1.87675428011912        1.69914379668100
C           -4.37973216039353       -4.07255634955891        1.08525748107315
C           -3.96298349572528       -3.17335527896204        2.05139387853719
C           -4.48414036746427       -3.67173507516757       -0.23588043544546
H           -4.23259735469349       -2.06064559285126       -1.62581553881386
H           -4.79764955749863       -4.37363684223160       -0.99361956396106
H           -4.61376480894617       -5.08974083568363        1.36108971974543
H           -3.87056967578605       -3.48550363949028        3.08013997795279
H           -3.29899115849614       -1.17864927644965        2.44879278821537
C            2.23553175044310       -0.53526607845756       -2.94267665479158
C            4.02239503395967       -0.15107494632684       -1.38743348872224
C            4.31410278402404       -1.71448397936815       -3.18281980895926
C            4.81224196394061       -1.05634557631751       -2.07044829471209
C            3.02797782430421       -1.44593895170308       -3.61689434970773
H            1.23966806988256       -0.33252137943365       -3.30131073681352
H            2.63381458399513       -1.95002548996150       -4.48607737799973
H            4.92691067642523       -2.43268379756216       -3.70648634102744
H            5.81791468904903       -1.25682247336523       -1.72882218015489
H            4.40279753070906        0.33742395732563       -0.50222002292985
C            0.22501306571416        4.81747446547666        1.85714537072419
C            1.58028324803118        5.08061238146050        1.65246058661066
H            3.38497348725693        4.42900186507100        0.70859026241565
H           -1.42832536063278        3.54991004489228        1.40776637066697
H           -0.35069677338179        5.45438673689483        2.51154473773450
H            2.03957262937521        5.92947319873626        2.13604761497163
