77
 energy: -129.257169809290 gnorm: 0.000612150399 xtb: 6.5.1 (b24c23e)
Si           0.47912097484907        0.87175100481296       -0.17825609624452
O            2.93454816130735        0.66906320945167        0.42597216716719
C            3.64828631828229        1.61511334738366        0.17816414321315
C            5.04718984786072        1.51123647090595       -0.23132239889749
H            3.26407554153622        2.64609367202595        0.23618113789271
C            5.59669052044441        0.26007200490791       -0.51597307523214
C            5.83387408728386        2.65664821487502       -0.35690698891704
C            6.91540561790700        0.15797848292819       -0.91170140883832
H            4.96342060971554       -0.60948158246024       -0.42748600183059
C            7.15449506262829        2.54655036608157       -0.74732413839517
H            5.40212861717907        3.62397422063128       -0.14583813836529
C            7.69565783048384        1.29935546838080       -1.02346332705297
H            7.33957930857240       -0.80945423215503       -1.13623521146585
H            7.76637319322300        3.43150043230880       -0.84184273140752
H            8.72794663089996        1.21852632381276       -1.33136731834363
C           -1.11368679104565        1.06745148243173        3.43081237450512
C           -0.33707037751595        1.46915852069787        2.47285809186134
H           -0.75617675719992        0.40822790623044        4.20518457519053
H           -2.14328411349168        1.38056678531589        3.50779273834341
C            0.41136675156334        1.82917257342836        1.48069114513399
H            0.99730732813505        2.73219844979655        1.55942462666698
Cl           1.34415798081635       -0.29930448537020       -1.70522830473389
Cl           1.02323681199249        2.70387963457288       -1.24074317655034
O            0.14528675174253       -0.57982927640319        0.82671570781083
O           -1.12736790311221        0.82867132259160       -0.83277462164510
C           -1.71067309227931       -1.68894403063032        0.01745400306065
C           -2.49635184612991       -0.56020193717077        0.44987464311858
C           -2.80983124007486        1.81411426443221        0.42252475715684
C            0.44031070471068       -2.72999817246870       -0.02383240496046
C           -0.09063271906784       -3.85216404157396       -0.60224428279036
C           -2.29076893702306       -2.81631208319162       -0.63316751435708
C           -1.46159577212214       -3.92347030577466       -0.94743910763487
C           -3.60410807774376       -0.70624942853472        1.33701066766198
C           -4.32548191901678        0.45043893400272        1.73352207949476
C           -3.89363958671906        1.71201300586520        1.24679975065145
C           -3.63283322386317       -2.83923752492328       -1.05266311257081
C           -2.01472553871750       -5.03848945323999       -1.59286788327299
C           -3.95396392646514       -1.93923691233525        1.91604291284106
C           -5.40702680468029        0.32647985232656        2.61333176461880
H           -4.42094791393744        2.60653010935232        1.53613930225612
C           -2.34140785550063        3.11274415591245       -0.08455145716687
N           -0.37222044761540       -1.68422425737022        0.26200150412332
N           -2.15883339286978        0.69242002513983        0.03116168957095
C            1.85923612349552       -2.67097643865839        0.35237284119124
H            0.55007385875548       -4.69567931110157       -0.80047042930169
C           -3.34122791100931       -5.05109065071760       -1.95441847883874
C           -4.14520758028445       -3.93985124626850       -1.69695555847420
H           -4.26174583740028       -1.98258627149936       -0.86678626132839
H           -1.37722819560412       -5.88303947591593       -1.80767625341544
H           -3.76038057238383       -5.91225291103602       -2.45238817756119
H           -5.17753215446929       -3.94221591045231       -2.01247056552245
C            2.81867699701612       -3.13311073602321       -0.54578574362225
C            2.26036693797614       -2.21985168724914        1.60598815453155
C            4.54743264492622       -2.70162497278312        1.05978031165661
C            3.59846544317026       -2.23660303864276        1.95321151396462
C            4.15383900779681       -3.14551561752054       -0.19324380583374
H            2.51423668195299       -3.44881940898939       -1.53156816075287
H            4.89175566799653       -3.49614581650354       -0.90042130275611
H            5.59270370802156       -2.70875058473623        1.33403606163701
H            3.90155004613409       -1.88132449840472        2.92681842035247
H            1.52869936582490       -1.85602608522959        2.30951181296717
C           -2.21200503590019        3.34695490116477       -1.44925445455916
C           -2.04028828835435        4.12749066204896        0.81855438233104
C           -1.46113589497426        5.57938987853591       -0.99939116939155
C           -1.59607185756928        5.35291557993616        0.36000318821719
C           -1.77481988158281        4.57762022622411       -1.90106196584050
H           -2.44619175955975        2.56346538582892       -2.15349698269184
H           -1.66518662863960        4.74839790360223       -2.96095662631018
H           -1.10418115105078        6.53419526021601       -1.35527820724745
H           -1.34683409155315        6.13079392548958        1.06664614705484
H           -2.12570719314339        3.93766089266535        1.87826310389141
C           -5.01288714668384       -2.03103430452488        2.78955049500407
C           -5.75606249753246       -0.90200423504294        3.12833709666920
H           -5.95767004585304        1.21427266584117        2.88701271387627
H           -3.38416179462951       -2.82214406127107        1.67362204388727
H           -5.26571580674059       -2.98768090147889        3.22117356682962
H           -6.59069657306067       -0.98933563448796        3.80716620766586
