77
 energy: -129.340160489157 gnorm: 0.000545444105 xtb: 6.5.1 (b24c23e)
Si           0.11854516867935        1.15001993048912        0.87749606658968
O            1.11357924245681        1.43273069952867       -0.37078976651660
C            2.19316534691892        2.30802116028782       -0.55132335518128
C            3.27507587859203        1.59740080216374       -1.32396853082315
H            2.57452990021935        2.62563574507863        0.42753835238647
C            2.94338071786229        0.59421767531558       -2.22529209329128
C            4.60815545360968        1.94680988521722       -1.15559572356428
C            3.93200745892535       -0.06095767425463       -2.93832880785048
H            1.90574070071476        0.32196806910772       -2.34612039919420
C            5.59526860236260        1.29785121972313       -1.87599023704029
H            4.86956235869364        2.72237740951148       -0.45043578597121
C            5.26034796621333        0.29055908254084       -2.76600460302710
H            3.66478480314427       -0.84817613587368       -3.62907878716081
H            6.63078318748516        1.57378183038540       -1.73909900901754
H            6.03307580427244       -0.22064657100750       -3.32155257891425
C            1.71259590907021        3.54617696497874       -1.33787036442734
C            0.66302603879766        4.22930379793221       -0.61365144176224
H            2.56029459216566        4.21606973135496       -1.50153204419000
H            1.32638215451936        3.21372284126202       -2.30548606915422
C           -0.22272100389189        4.73859560660562        0.00876185336245
H           -0.99735852639133        5.19356985066519        0.54946069886304
Cl           1.48566834073765        1.81418669365694        2.42221709991423
Cl          -1.46230490327830        2.10339926037063        1.81429150413093
O           -0.98336712768862        0.58567403306499       -0.46734542366282
O            0.17109723788646       -0.46175386216600        1.47861204660796
C           -1.91910922056235       -1.46031326795345        0.04159063187200
C           -0.59832038414160       -2.01632296018327       -0.09804657563078
C            1.71588190825673       -1.91747174180569        0.52360420968364
C           -3.29838113161295        0.47967174613101       -0.19163770202275
C           -4.41959031817793       -0.26545718781151        0.06386980893457
C           -3.05579240756337       -2.25552283324994        0.36915936441669
C           -4.33522179716886       -1.64356426705219        0.37584024468602
C           -0.32108255513013       -3.08786930919181       -1.00082127569113
C            1.01075837243489       -3.56657263152974       -1.11024404314968
C            2.01365460253088       -2.95328014692041       -0.31597714234822
C           -2.94862981249368       -3.60043638291748        0.76482634623034
C           -5.46460054108302       -2.41097315954523        0.69541867061859
C           -1.29354352895409       -3.62462321136131       -1.86361320718613
C            1.30477189808382       -4.60463445443594       -2.00214155716008
H            3.02896475328689       -3.31030846075445       -0.36923022664078
C            2.74725461171675       -1.30117379945615        1.37061362305156
N           -2.08535027276540       -0.12752980576425       -0.18182737302876
N            0.43566932011330       -1.47704458506690        0.61034016802296
C           -3.39721012584528        1.90790043408828       -0.52391211691664
H           -5.38567662214127        0.21031231446164        0.02572331758037
C           -5.33568074897234       -3.73646759875888        1.03707988755476
C           -4.07116282539283       -4.32489573136129        1.08788899687285
H           -1.97525318256903       -4.06301913375696        0.81456594174287
H           -6.43534922713400       -1.93891784467816        0.67517891120509
H           -6.20911859118277       -4.32122129650867        1.28251695860708
H           -3.97307636864046       -5.35670991502970        1.38914950388852
C           -4.23543470080031        2.72227129526551        0.23534177788211
C           -2.70023972324547        2.45997244885280       -1.59449969418741
C           -3.65129821947321        4.61171339358875       -1.11974347974380
C           -2.82758512666343        3.80557189681763       -1.88569453272006
C           -4.35648932908805        4.06567098319345       -0.05952686248635
H           -4.75767143829332        2.30427385908965        1.08180377599242
H           -4.99619215869071        4.69099911812875        0.54552852041908
H           -3.73936071608151        5.66450254731121       -1.34480087671349
H           -2.27475451681788        4.22781479879939       -2.71127692400279
H           -2.05708486060323        1.83962816662063       -2.19783569962701
C            2.56453691148338       -1.16424440178298        2.74367948412597
C            3.94535623291578       -0.88777973885377        0.79510376522352
C            4.73306171453732       -0.15849534497746        2.93902773827981
C            4.92691519623169       -0.30877262825391        1.57627406314456
C            3.55655792168804       -0.59755797683787        3.52087497360694
H            1.64509564432594       -1.49524745067049        3.20126925756438
H            3.40115500601227       -0.48369249748825        4.58253048884480
H            5.49669821565081        0.30313608424650        3.54680482165442
H            5.84227670056630        0.03053660125454        1.11465988949647
H            4.09196401002759       -0.99575814990284       -0.26870851679830
C           -0.97519473997749       -4.63670948117199       -2.73950957195837
C            0.32133465899647       -5.14405456438941       -2.80050639426592
H            2.31936390806847       -4.97010791293239       -2.05539955665886
H           -2.29970275245714       -3.23761179989198       -1.84058555451874
H           -1.73809946407234       -5.03645438465312       -3.39018286901980
H            0.55505751879235       -5.94533767691040       -3.48472098984732
