77
 energy: -129.344444233191 gnorm: 0.000796232237 xtb: 6.5.1 (b24c23e)
Si          -0.53004865838131        1.10575989261241       -0.09835614439809
O           -1.64952116737883        0.15335021509442        0.60249992126473
C           -2.63897264371074        0.47601561683204        1.54704882239630
C           -3.85708866800716        1.08204125065588        0.89771039221736
H           -2.22311682156625        1.18694210734895        2.27028459605427
C           -4.11436376174667        0.88568726631534       -0.45011352043808
C           -4.75093669817790        1.82303800586219        1.66021602652287
C           -5.24929721917173        1.42259583528700       -1.03110834015290
H           -3.41441822877561        0.32293022272631       -1.04658194467202
C           -5.88780085901292        2.35452598141190        1.08021239265672
H           -4.54621200193662        1.99318862647342        2.70748148558556
C           -6.14079720893269        2.15405725377515       -0.26697856582485
H           -5.43216283391825        1.26881214679949       -2.08437407864151
H           -6.57600769590558        2.93296978337878        1.67916858472290
H           -7.02710939800106        2.57413450880168       -0.71958123367985
C           -3.03205421712747       -0.82012384232412        2.28300688761694
C           -1.86182202374881       -1.48697997250988        2.81074783263277
H           -3.71694373025517       -0.56861632120911        3.09618321730232
H           -3.54615583128587       -1.47892293283386        1.57973623669424
C           -0.86745571642478       -2.01584717655869        3.21532202417898
H           -0.00764692950948       -2.48879995920460        3.58620619734771
Cl          -0.68658268906346        2.03070580473178       -1.93090743276665
Cl          -0.96453742253272        2.90779028134494        0.99991469994871
O            0.96720283780077        1.02325833156395        0.74068861308234
O            0.00165412530218       -0.31915003088328       -1.09627149505414
C            2.44628848455547       -0.61340097142882       -0.08158307630212
C            1.45029156670256       -1.62287997551699        0.14859905005641
C           -0.70122628677757       -2.45788179905114       -0.47103783258400
C            2.94788026095362        1.72811696230829       -0.22595188280208
C            4.18535723636872        1.46857617296122       -0.73417301419044
C            3.73742795497002       -0.92736302261822       -0.61231268885637
C            4.62919975484601        0.13291579994151       -0.92397221644903
C            1.69289227845153       -2.78257230436395        0.94259474267184
C            0.72244119394510       -3.81508345125458        0.95423134685974
C           -0.45269953034731       -3.63444790166454        0.18749734588714
C            4.13057532549055       -2.23788026233865       -0.93854683792589
C            5.89593856975248       -0.15363351023462       -1.44621892364593
C            2.81594560052062       -2.89862636459833        1.77938876862881
C            0.94420265526879       -4.96010812270853        1.73303904797018
H           -1.17453041680134       -4.43253492773021        0.13701520012307
C           -1.94549566866770       -2.26554947548085       -1.22823102950688
N            2.13376513147179        0.69961217709321        0.11930683106154
N            0.23787420138101       -1.48068887462191       -0.45430902190604
C            2.45376594539124        3.09963775840303       -0.00705006486895
H            4.82959457842484        2.29106967311513       -0.99818228894063
C            6.27438582987112       -1.45219076402493       -1.70039603887895
C            5.37618145375887       -2.49104450195446       -1.46437394352615
H            3.44866087584694       -3.05712663645388       -0.77817926609041
H            6.56750890913797        0.66596461485909       -1.65321504273901
H            7.25338285434629       -1.66561595362065       -2.10117550192367
H            5.65607650071522       -3.50617514179553       -1.70174124567051
C            2.19811839548231        3.91854253845203       -1.10060010137767
C            2.23747529063841        3.57516214269372        1.28096369757227
C            1.50134151865358        5.67105195647974        0.38059832314411
C            1.76732846970160        4.86056269846989        1.47064989046232
C            1.71578620182119        5.19903243216541       -0.90291780786787
H            2.34713853685335        3.53750164333975       -2.09983854398039
H            1.49627706536635        5.82373072031127       -1.75537528079684
H            1.11506608797744        6.66771078931538        0.53191839877978
H            1.59053937031492        5.22207831445708        2.47193458879729
H            2.42787349280217        2.93337119484130        2.12799961027336
C           -1.96598757068016       -1.64999613144669       -2.47801843506988
C           -3.14033871951798       -2.75551526438340       -0.70073480831531
C           -4.34357935376159       -1.96682996848404       -2.61872085879148
C           -4.32953285921803       -2.59897691692128       -1.38605439859525
C           -3.15880553910914       -1.50242736506944       -3.16342374310425
H           -1.05319502431861       -1.28224899375604       -2.91787007593312
H           -3.15881573459330       -1.01437229568726       -4.12635851367207
H           -5.27441411190834       -1.83879708991229       -3.15048168259507
H           -5.24939946757977       -2.96779661453664       -0.95639184644811
H           -3.13275136569528       -3.24874186928474        0.26014187971435
C            2.99826556162607       -4.02307877711899        2.55003175235915
C            2.07063895733995       -5.06545752474047        2.51514207178159
H            0.20718977103789       -5.74890498309463        1.71902011820921
H            3.53411972104189       -2.09416542997862        1.81688039223113
H            3.86274872654726       -4.09742418830890        3.19216088679764
H            2.23213478106825       -5.94645311051061        3.11776689537752
