77
 energy: -129.335848802882 gnorm: 0.000598600230 xtb: 6.5.1 (b24c23e)
Si           0.68119479086443        0.65466642298467       -0.27173579272827
O            2.27646652235294        0.62945161207828        0.12950277083785
C            3.18260320674426        1.68345127080949        0.31102880574249
C            4.49531584856082        1.12445594095746        0.79942886942175
H            2.77175184695838        2.37698400248152        1.05965336544338
C            5.19320835352069        0.20840440558518        0.02282553089718
C            5.03771553832337        1.54200443671175        2.00664181988686
C            6.42367521294350       -0.26509199284472        0.44060349399622
H            4.76298479142723       -0.13628591335497       -0.90496424459896
C            6.26491893837609        1.06021772104581        2.42833836858728
H            4.49622556693639        2.25045575904222        2.61709970993614
C            6.96374680272971        0.16035460460565        1.64244131936147
H            6.96922667094783       -0.96286506300513       -0.17785070331465
H            6.67840805789671        1.39198067078617        3.36972409602040
H            7.92626661051999       -0.20859296308873        1.96615107860559
C            3.41428768534521        2.45863629428322       -1.00387524208081
C            2.28034227396497        3.29268003343918       -1.32760340680541
H            4.30766034042442        3.07947587342965       -0.89342275913441
H            3.57411063172087        1.73797854552921       -1.80922091935811
C            1.32050595915088        3.96935796220378       -1.55683138865238
H            0.48218295609820        4.56212618925488       -1.76755796021828
Cl           1.05064757245923        0.16794807190384       -2.27737619689063
Cl           0.17712107059208        2.16641862969646        1.12719990287704
O            0.29922571887557       -0.74967853819309        0.61815792339992
O           -1.03370570665313        0.72852810613432       -0.92300242813098
C           -1.77069232167393       -1.66537020147048        0.01970375604196
C           -2.41418111556832       -0.46898785490999        0.49737309122885
C           -2.71548542038124        1.88332450199434        0.21086844515429
C            0.28280032358817       -2.80189412773801       -0.46934102558732
C           -0.39966291553270       -3.86900579426444       -0.98165233809265
C           -2.51764537947946       -2.75663550864146       -0.51855426612200
C           -1.81755163648688       -3.88701708507078       -1.01594053478412
C           -3.42940313017341       -0.49433176140123        1.49755828832224
C           -4.10123443343996        0.71184777382405        1.82144628185630
C           -3.73548006716543        1.88818628253608        1.12351480724234
C           -3.91607633904569       -2.72331690768403       -0.66715037390152
C           -2.53114037994720       -4.96790230380614       -1.54717437384495
C           -3.72820329891118       -1.65265296520430        2.23684197806608
C           -5.09536618928104        0.70355366987870        2.80996023213475
H           -4.26679266236105        2.80642170793087        1.31281717413235
C           -2.37920503971009        3.09499486608340       -0.54970703550626
N           -0.40920479934281       -1.75122963430534        0.03423984760206
N           -2.06572051584820        0.72479040730568       -0.05579448741113
C            1.75108914580216       -2.80603490786881       -0.40316417093941
H            0.15276250312046       -4.71227616722507       -1.36216976220552
C           -3.90467304315182       -4.93017564685965       -1.62865695132399
C           -4.59176540338122       -3.79375658101179       -1.20531092358406
H           -4.46586838249707       -1.84940190859266       -0.35645366596932
H           -1.98220353806010       -5.82893057661952       -1.89778401196799
H           -4.44865478132090       -5.76814408482739       -2.03688349305048
H           -5.66560999174956       -3.74886696782360       -1.30536224813659
C            2.47546204094922       -3.12336500694662       -1.54886897188417
C            2.42423469971201       -2.57210272074775        0.79221382862867
C            4.51583691531270       -3.01169191264980       -0.29592034972228
C            3.80129205977003       -2.67592537104700        0.84120455649191
C            3.85249109473332       -3.22166413275524       -1.49316621162628
H            1.95459344743190       -3.26859465029111       -2.48291019451390
H            4.40878192764513       -3.46449306531344       -2.38649701072313
H            5.59026279232115       -3.10454499030909       -0.24879226712016
H            4.31920884511862       -2.49293026222248        1.77059136664244
H            1.87070548894470       -2.31982007738963        1.68269547782032
C           -2.27340230533429        3.05884333075581       -1.93725339826651
C           -2.24377786636277        4.31037546434697        0.11655975784092
C           -1.92083471533925        5.43359403900317       -1.97858315316486
C           -2.01017374226776        5.47120295968827       -0.59548941905467
C           -2.04917402560700        4.22573866265928       -2.64526477339645
H           -2.37096325834748        2.12203020031319       -2.46332216753867
H           -1.96822192954207        4.18933446128539       -3.72158856386283
H           -1.74081956817612        6.34274205860212       -2.53452765434479
H           -1.89357884879769        6.40834099675763       -0.07144765204100
H           -2.29145896940483        4.33155994903652        1.19403587679734
C           -4.69808999171678       -1.62904361131066        3.21026592450139
C           -5.39701818360534       -0.45351711993789        3.48868766946090
H           -5.61386700939302        1.62403563862942        3.03245317289864
H           -3.18758720079505       -2.56434693194402        2.03546011026721
H           -4.91679196038643       -2.52653068191351        3.76863616746957
H           -6.16348318595418       -0.45297253300792        4.24873662597130
