77
 energy: -129.340284469503 gnorm: 0.000466887167 xtb: 6.5.1 (b24c23e)
Si          -0.48922800504436        1.31814532277553       -0.70916349119231
O           -1.90099767529766        1.02203623486572        0.04443314838617
C           -2.44173333060223        1.40050029390007        1.30097325835603
C           -1.38340256798858        1.18686502936412        2.35806852070599
H           -3.25273065025767        0.67287519069977        1.45943553575667
C           -1.04718559410054       -0.12779544246082        2.66482154060746
C           -0.66076238466104        2.21713603538144        2.94171188328378
C            0.00752701773450       -0.41426935044731        3.51017775512848
H           -1.61643547653842       -0.93513407934974        2.22442203537704
C            0.39075581785658        1.93034687922068        3.79614299212722
H           -0.89336853201723        3.24486436672601        2.71868895661657
C            0.73598124533768        0.61957724803662        4.07392432418241
H            0.26219267569414       -1.44358442489797        3.72218556758255
H            0.95217137244255        2.74104154357948        4.23732374691087
H            1.56843108689013        0.40226178496195        4.72812954975415
C           -3.06334204351627        2.80058595194823        1.26473874063374
C           -4.17900560704701        2.82953413955745        0.34363056045494
H           -3.40802141505905        3.05681644720207        2.27028058395527
H           -2.31759498918689        3.52563687947146        0.93567741457400
C           -5.09389120355938        2.81790671702679       -0.42711294458583
H           -5.89177132354851        2.84072132986925       -1.10665248447808
Cl          -0.31407535022425        1.91469281722651       -2.67368567313800
Cl          -0.08738956013944        3.30816258250133        0.01294092029894
O            0.82319021129377        0.75578906079225        0.27489348757687
O           -0.55223961512493       -0.33418258682958       -1.46711098316489
C            1.61196692947621       -1.37655579636484       -0.32952181181915
C            0.31642235192737       -1.92171323588300       -0.02949876856653
C           -2.02835888630012       -1.86263085974915       -0.49618002626271
C            2.99640602316579        0.57256091540294       -0.49934454223724
C            4.05285044943425       -0.17214351346514       -0.93419064043071
C            2.68808471467072       -2.18814269146384       -0.80495850627435
C            3.93339800653972       -1.57654558672525       -1.10449094880211
C            0.13101514399121       -3.00247705555393        0.88187606183904
C           -1.17121926727995       -3.54012026347339        1.04258394899024
C           -2.23234648336833       -2.95190376962337        0.31171654914753
C            2.53604194316509       -3.55808481995008       -1.08450822538243
C            4.99397301288727       -2.35710287275286       -1.57948513057173
C            1.16780660697055       -3.49183978252749        1.69498460359919
C           -1.37441908859151       -4.60049901846912        1.93714021283743
H           -3.22561467880731       -3.36039351342327        0.40354641592976
C           -3.14617250727120       -1.22143675395386       -1.20113757473334
N            1.81846997081229       -0.03394844028701       -0.20845638951948
N           -0.76941255584591       -1.38421259592113       -0.65084507202395
C            3.09435364244408        2.02586194736766       -0.28301194863482
H            4.98789959774434        0.31722301205299       -1.15221831982437
C            4.83048744243669       -3.70653591598082       -1.79552245711343
C            3.59048848263137       -4.29948991483717       -1.56435386723304
H            1.58114091305980       -4.03277012766074       -0.92477034030720
H            5.94039273895854       -1.87809360587998       -1.78056657560303
H            5.65271862695482       -4.30205952505839       -2.16149097116318
H            3.45239994352190       -5.35006678645573       -1.77010672595411
C            3.37911270054835        2.86788990988874       -1.35165060251548
C            2.91318231988277        2.55744178649231        0.98962304940028
C            3.29178880379656        4.75942361379982        0.11946004122932
C            3.01771255765265        3.92094952255160        1.18626397710835
C            3.46957337666676        4.23237925184988       -1.14819081516820
H            3.49603730501045        2.45198975799178       -2.34147111668312
H            3.66900073696212        4.88497728667466       -1.98460434724374
H            3.35489262536279        5.82588503330636        0.27414300122988
H            2.86846122611843        4.33074074581284        2.17345771512275
H            2.67868883842617        1.90361074207453        1.81675338722574
C           -4.34369706833341       -1.01788033863165       -0.51707024809265
C           -3.05590780099418       -0.83651385663798       -2.53576720395967
C           -5.31624327024857       -0.03055277186827       -2.47074325214529
C           -4.13619778108211       -0.24303808629474       -3.16154549738387
C           -5.41816899690810       -0.42142640542577       -1.14628703167899
H           -4.42457478248837       -1.30903802005886        0.52027675348729
H           -6.33425943320838       -0.25756419561640       -0.59843725457300
H           -6.15545948063219        0.43701102617182       -2.96424324835424
H           -4.05097981118759        0.05786258061985       -4.19476041489193
H           -2.14385249857327       -0.99961391721720       -3.08706765104813
C            0.93669981757987       -4.52024786845517        2.57801212922363
C           -0.33166527633148       -5.09135562352968        2.68748565240573
H           -2.36612115750274       -5.01662832314445        2.03321000508294
H            2.15005632032613       -3.05136183190085        1.62456981674210
H            1.74261645788028       -4.88468154026401        3.19681038663035
H           -0.49537990537796       -5.90635687865953        3.37593987325062
